<?xml version="1.0"?>

<!-- generated on Mon Apr  6 17:44:43 2009 by SUMO netconvert Version 0.10.2
<configuration>

   <input>
      <xml-node-files>/tmp/mondp/0.nod.xml</xml-node-files>
      <xml-edge-files>/tmp/mondp/0.edg.xml</xml-edge-files>
   </input>

   <output>
      <output-file>rand.net.xml</output-file>
   </output>

   <report>
      <verbose>true</verbose>
      <print-options>true</print-options>
   </report>

</configuration>
-->

<net>

   <net-offset>0.00,0.00</net-offset>
   <conv-boundary>0.00,0.00,936.44,667.04</conv-boundary>
   <orig-boundary>0.00,0.00,936.44,667.04</orig-boundary>
   <orig-proj>!</orig-proj>

   <edge id=":0_0" function="internal">
      <lanes>
         <lane id=":0_0_0" depart="0" maxspeed="13.90" length="8.35" >647.85,442.54 645.14,440.91 643.09,440.30 641.69,440.70 640.96,442.12</lane>
      </lanes>
   </edge>

   <edge id=":0_1" function="internal">
      <lanes>
         <lane id=":0_1_0" depart="0" maxspeed="13.90" length="11.08" >647.85,442.54 644.48,440.38 641.68,439.04 639.45,438.52 637.80,438.81</lane>
      </lanes>
   </edge>

   <edge id=":0_2" function="internal">
      <lanes>
         <lane id=":0_2_0" depart="0" maxspeed="13.90" length="8.74" >641.29,433.39 640.96,442.12</lane>
      </lanes>
   </edge>

   <edge id=":0_3" function="internal">
      <lanes>
         <lane id=":0_3_0" depart="0" maxspeed="13.90" length="7.30" >641.29,433.39 641.72,434.76 641.28,436.12 639.97,437.47 637.80,438.81</lane>
      </lanes>
   </edge>

   <edge id=":17_0" function="internal">
      <lanes>
         <lane id=":17_0_0" depart="0" maxspeed="13.90" length="5.20" >755.81,232.17 755.88,233.66 756.33,234.80 757.17,235.61 758.40,236.07</lane>
      </lanes>
   </edge>

   <edge id=":17_1" function="internal">
      <lanes>
         <lane id=":17_1_0" depart="0" maxspeed="13.90" length="6.18" >752.28,235.17 758.40,236.07</lane>
      </lanes>
   </edge>

   <edge id=":18_0" function="internal">
      <lanes>
         <lane id=":18_0_0" depart="0" maxspeed="13.90" length="2.46" >529.85,2.48 529.97,1.83 530.28,1.36 530.77,1.07 531.43,0.97</lane>
      </lanes>
   </edge>

   <edge id=":3_0" function="internal">
      <lanes>
         <lane id=":3_0_0" depart="0" maxspeed="13.90" length="6.31" >154.53,444.99 152.60,445.44 151.74,446.24 151.93,447.41 153.17,448.94</lane>
      </lanes>
   </edge>

   <edge id=":3_1" function="internal">
      <lanes>
         <lane id=":3_1_0" depart="0" maxspeed="13.90" length="15.69" >154.53,444.99 150.69,445.41 146.73,445.87 142.77,446.36 138.94,446.85</lane>
      </lanes>
   </edge>

   <edge id=":3_2" function="internal">
      <lanes>
         <lane id=":3_2_0" depart="0" maxspeed="13.90" length="14.84" >154.53,444.99 150.18,445.10 146.47,444.42 143.39,442.96 140.94,440.72</lane>
      </lanes>
   </edge>

   <edge id=":3_3" function="internal">
      <lanes>
         <lane id=":3_3_0" depart="0" maxspeed="13.90" length="13.04" >154.53,444.99 149.98,445.08 146.86,444.21 145.18,442.39 144.93,439.62</lane>
      </lanes>
   </edge>

   <edge id=":3_4" function="internal">
      <lanes>
         <lane id=":3_4_0" depart="0" maxspeed="13.90" length="5.88" >141.51,450.25 142.00,448.55 141.73,447.41 140.72,446.85 138.94,446.85</lane>
      </lanes>
   </edge>

   <edge id=":3_5" function="internal">
      <lanes>
         <lane id=":3_5_0" depart="0" maxspeed="13.90" length="10.06" >141.51,450.25 142.41,447.50 142.62,445.00 142.13,442.74 140.94,440.72</lane>
      </lanes>
   </edge>

   <edge id=":3_6" function="internal">
      <lanes>
         <lane id=":3_6_0" depart="0" maxspeed="13.90" length="11.22" >141.51,450.25 142.79,447.35 143.70,445.08 144.37,442.73 144.93,439.62</lane>
      </lanes>
   </edge>

   <edge id=":3_7" function="internal">
      <lanes>
         <lane id=":3_7_0" depart="0" maxspeed="13.90" length="14.83" >141.51,450.25 143.68,446.86 146.35,445.51 149.52,446.20 153.17,448.94</lane>
      </lanes>
   </edge>

   <edge id=":4_0" function="internal">
      <lanes>
         <lane id=":4_0_0" depart="0" maxspeed="13.90" length="7.69" >770.58,-1.63 777.29,2.13</lane>
      </lanes>
   </edge>

   <edge id=":4_1" function="internal">
      <lanes>
         <lane id=":4_1_0" depart="0" maxspeed="13.90" length="6.97" >770.58,-1.63 771.97,-1.31 772.91,-0.29 773.38,1.41 773.40,3.80</lane>
      </lanes>
   </edge>

   <edge id=":5_0" function="internal">
      <lanes>
         <lane id=":5_0_0" depart="0" maxspeed="13.90" length="3.78" >593.86,667.46 593.48,668.53 592.92,669.03 592.16,668.97 591.23,668.33</lane>
      </lanes>
   </edge>

   <edge id=":9_0" function="internal">
      <lanes>
         <lane id=":9_0_0" depart="0" maxspeed="13.90" length="2.73" >380.70,157.15 380.00,156.85 379.40,156.85 378.87,157.16 378.44,157.78</lane>
      </lanes>
   </edge>



   <edge id="0" from="1" to="0" priority="-1" type="" function="normal">
      <lanes>
         <lane id="0_0" depart="1" vclasses="" maxspeed="13.90" length="223.35">522.89,244.01 641.29,433.39</lane>
      </lanes>
   </edge>

   <edge id="1" from="1" to="2" priority="-1" type="" function="normal">
      <lanes>
         <lane id="1_0" depart="1" vclasses="" maxspeed="13.90" length="129.04">518.66,245.28 487.14,370.41</lane>
      </lanes>
   </edge>

   <edge id="10" from="8" to="7" priority="-1" type="" function="normal">
      <lanes>
         <lane id="10_0" depart="1" vclasses="" maxspeed="13.90" length="150.15">347.02,426.37 448.53,537.02</lane>
      </lanes>
   </edge>

   <edge id="11" from="1" to="9" priority="-1" type="" function="normal">
      <lanes>
         <lane id="11_0" depart="1" vclasses="" maxspeed="13.90" length="155.38">513.06,238.53 380.70,157.15</lane>
      </lanes>
   </edge>

   <edge id="12" from="1" to="10" priority="-1" type="" function="normal">
      <lanes>
         <lane id="12_0" depart="1" vclasses="" maxspeed="13.90" length="209.73">513.07,242.98 310.74,298.24</lane>
      </lanes>
   </edge>

   <edge id="13" from="11" to="3" priority="-1" type="" function="normal">
      <lanes>
         <lane id="13_0" depart="1" vclasses="" maxspeed="13.90" length="152.70">80.37,590.18 141.51,450.25</lane>
      </lanes>
   </edge>

   <edge id="14" from="3" to="12" priority="-1" type="" function="normal">
      <lanes>
         <lane id="14_0" depart="1" vclasses="" maxspeed="13.90" length="130.25">144.93,439.62 163.42,310.70</lane>
      </lanes>
   </edge>

   <edge id="15" from="3" to="13" priority="-1" type="" function="normal">
      <lanes>
         <lane id="15_0" depart="1" vclasses="" maxspeed="13.90" length="203.94">140.94,440.72 12.41,282.39</lane>
      </lanes>
   </edge>

   <edge id="16" from="3" to="14" priority="-1" type="" function="normal">
      <lanes>
         <lane id="16_0" depart="1" vclasses="" maxspeed="13.90" length="212.86">153.17,448.94 306.46,596.62</lane>
      </lanes>
   </edge>

   <edge id="17" from="0" to="7" priority="-1" type="" function="normal">
      <lanes>
         <lane id="17_0" depart="1" vclasses="" maxspeed="13.90" length="212.90">637.80,438.81 448.36,535.96</lane>
      </lanes>
   </edge>

   <edge id="18" from="3" to="15" priority="-1" type="" function="normal">
      <lanes>
         <lane id="18_0" depart="1" vclasses="" maxspeed="13.90" length="139.96">138.94,446.85 0.22,465.44</lane>
      </lanes>
   </edge>

   <edge id="19" from="18" to="4" priority="-1" type="" function="normal">
      <lanes>
         <lane id="19_0" depart="1" vclasses="" maxspeed="13.90" length="239.17">531.43,0.97 770.58,-1.63</lane>
      </lanes>
   </edge>

   <edge id="2" from="8" to="10" priority="-1" type="" function="normal">
      <lanes>
         <lane id="2_0" depart="1" vclasses="" maxspeed="13.90" length="120.93">339.09,419.30 304.50,303.42</lane>
      </lanes>
   </edge>

   <edge id="20" from="4" to="16" priority="-1" type="" function="normal">
      <lanes>
         <lane id="20_0" depart="1" vclasses="" maxspeed="13.90" length="206.14">777.29,2.13 937.48,131.87</lane>
      </lanes>
   </edge>

   <edge id="21" from="1" to="17" priority="-1" type="" function="normal">
      <lanes>
         <lane id="21_0" depart="1" vclasses="" maxspeed="13.90" length="228.72">523.58,238.11 752.28,235.17</lane>
      </lanes>
   </edge>

   <edge id="22" from="1" to="18" priority="-1" type="" function="normal">
      <lanes>
         <lane id="22_0" depart="1" vclasses="" maxspeed="13.90" length="232.87">516.95,234.99 529.85,2.48</lane>
      </lanes>
   </edge>

   <edge id="23" from="19" to="0" priority="-1" type="" function="normal">
      <lanes>
         <lane id="23_0" depart="1" vclasses="" maxspeed="13.90" length="151.13">771.67,529.20 647.85,442.54</lane>
      </lanes>
   </edge>

   <edge id="3" from="8" to="2" priority="-1" type="" function="normal">
      <lanes>
         <lane id="3_0" depart="1" vclasses="" maxspeed="13.90" length="145.74">346.27,420.20 484.31,373.47</lane>
      </lanes>
   </edge>

   <edge id="4" from="8" to="3" priority="-1" type="" function="normal">
      <lanes>
         <lane id="4_0" depart="1" vclasses="" maxspeed="13.90" length="183.94">337.44,425.53 154.53,444.99</lane>
      </lanes>
   </edge>

   <edge id="5" from="9" to="10" priority="-1" type="" function="normal">
      <lanes>
         <lane id="5_0" depart="1" vclasses="" maxspeed="13.90" length="154.20">378.44,157.78 308.13,295.03</lane>
      </lanes>
   </edge>

   <edge id="6" from="4" to="17" priority="-1" type="" function="normal">
      <lanes>
         <lane id="6_0" depart="1" vclasses="" maxspeed="13.90" length="229.05">773.40,3.80 755.81,232.17</lane>
      </lanes>
   </edge>

   <edge id="7" from="17" to="6" priority="-1" type="" function="normal">
      <lanes>
         <lane id="7_0" depart="1" vclasses="" maxspeed="13.90" length="131.29">758.40,236.07 886.93,262.85</lane>
      </lanes>
   </edge>

   <edge id="8" from="0" to="5" priority="-1" type="" function="normal">
      <lanes>
         <lane id="8_0" depart="1" vclasses="" maxspeed="13.90" length="230.21">640.96,442.12 593.86,667.46</lane>
      </lanes>
   </edge>

   <edge id="9" from="5" to="7" priority="-1" type="" function="normal">
      <lanes>
         <lane id="9_0" depart="1" vclasses="" maxspeed="13.90" length="162.69">591.23,668.33 469.84,560.02</lane>
      </lanes>
   </edge>


   <row-logic>
      <key>0</key>
      <requestsize>4</requestsize>
      <lanenumber>2</lanenumber>
      <logic>
         <logicitem request="0" response="0000" foes="0100" cont="0"/>
         <logicitem request="1" response="0000" foes="1100" cont="0"/>
         <logicitem request="2" response="0011" foes="0011" cont="0"/>
         <logicitem request="3" response="0010" foes="0010" cont="0"/>
      </logic>
   </row-logic>

   <row-logic>
      <key>17</key>
      <requestsize>2</requestsize>
      <lanenumber>2</lanenumber>
      <logic>
         <logicitem request="0" response="00" foes="10" cont="0"/>
         <logicitem request="1" response="01" foes="01" cont="0"/>
      </logic>
   </row-logic>

   <row-logic>
      <key>18</key>
      <requestsize>1</requestsize>
      <lanenumber>1</lanenumber>
      <logic>
         <logicitem request="0" response="0" foes="0" cont="0"/>
      </logic>
   </row-logic>

   <row-logic>
      <key>3</key>
      <requestsize>8</requestsize>
      <lanenumber>2</lanenumber>
      <logic>
         <logicitem request="0" response="00000000" foes="10000000" cont="0"/>
         <logicitem request="1" response="01010000" foes="01110000" cont="0"/>
         <logicitem request="2" response="01100000" foes="01100000" cont="0"/>
         <logicitem request="3" response="01000000" foes="01000000" cont="0"/>
         <logicitem request="4" response="00000000" foes="00000010" cont="0"/>
         <logicitem request="5" response="00000010" foes="00000110" cont="0"/>
         <logicitem request="6" response="00000000" foes="00001110" cont="0"/>
         <logicitem request="7" response="00000001" foes="00000001" cont="0"/>
      </logic>
   </row-logic>

   <row-logic>
      <key>4</key>
      <requestsize>2</requestsize>
      <lanenumber>1</lanenumber>
      <logic>
         <logicitem request="0" response="00" foes="00" cont="0"/>
         <logicitem request="1" response="00" foes="00" cont="0"/>
      </logic>
   </row-logic>

   <row-logic>
      <key>5</key>
      <requestsize>1</requestsize>
      <lanenumber>1</lanenumber>
      <logic>
         <logicitem request="0" response="0" foes="0" cont="0"/>
      </logic>
   </row-logic>

   <row-logic>
      <key>9</key>
      <requestsize>1</requestsize>
      <lanenumber>1</lanenumber>
      <logic>
         <logicitem request="0" response="0" foes="0" cont="0"/>
      </logic>
   </row-logic>



   <junction id="0" type="priority" x="640.66" y="435.49">
      <inclanes>23_0 0_0</inclanes>
      <intlanes>:0_0_0 :0_1_0 :0_2_0 :0_3_0</intlanes>
      <shape>646.94,443.85 648.77,441.23 642.65,432.54 639.94,434.24 637.07,437.39 638.53,440.24 639.39,441.79 642.53,442.45</shape>
   </junction>

   <junction id="1" type="DEAD_END" x="518.33" y="239.83">
      <inclanes></inclanes>
      <intlanes></intlanes>
      <shape>521.53,244.86 524.24,243.16 523.60,239.71 523.56,236.51 518.54,235.08 515.35,234.90 513.90,237.17 512.23,239.89 512.64,241.43 513.49,244.52 517.11,244.89 520.21,245.67</shape>
   </junction>

   <junction id="10" type="DEAD_END" x="304.66" y="298.19">
      <inclanes>2_0 12_0 5_0</inclanes>
      <intlanes></intlanes>
      <shape>302.97,303.88 306.03,302.96 311.16,299.78 310.32,296.70 309.56,295.76 306.71,294.30</shape>
   </junction>

   <junction id="11" type="DEAD_END" x="81.88" y="590.84">
      <inclanes></inclanes>
      <intlanes></intlanes>
      <shape>81.83,590.82 78.90,589.54</shape>
   </junction>

   <junction id="12" type="DEAD_END" x="165.05" y="310.93">
      <inclanes>14_0</inclanes>
      <intlanes></intlanes>
      <shape>161.83,310.47 165.00,310.92</shape>
   </junction>

   <junction id="13" type="DEAD_END" x="13.69" y="281.35">
      <inclanes>15_0</inclanes>
      <intlanes></intlanes>
      <shape>11.17,283.40 13.65,281.38</shape>
   </junction>

   <junction id="14" type="DEAD_END" x="305.32" y="597.81">
      <inclanes>16_0</inclanes>
      <intlanes></intlanes>
      <shape>307.57,595.47 305.35,597.77</shape>
   </junction>

   <junction id="15" type="DEAD_END" x="0.00" y="463.80">
      <inclanes>18_0</inclanes>
      <intlanes></intlanes>
      <shape>0.43,467.02 0.01,463.85</shape>
   </junction>

   <junction id="16" type="DEAD_END" x="936.44" y="133.15">
      <inclanes>20_0</inclanes>
      <intlanes></intlanes>
      <shape>938.49,130.62 936.47,133.11</shape>
   </junction>

   <junction id="17" type="priority" x="753.80" y="236.80">
      <inclanes>6_0 21_0</inclanes>
      <intlanes>:17_0_0 :17_1_0</intlanes>
      <shape>758.08,237.64 758.73,234.51 757.41,232.30 754.22,232.05 752.26,233.57 752.30,236.77</shape>
   </junction>

   <junction id="18" type="priority" x="531.49" y="2.62">
      <inclanes>22_0</inclanes>
      <intlanes>:18_0_0</intlanes>
      <shape>531.44,2.57 531.41,-0.63 528.25,2.39 531.44,2.57</shape>
   </junction>

   <junction id="19" type="DEAD_END" x="772.62" y="527.85">
      <inclanes></inclanes>
      <intlanes></intlanes>
      <shape>772.59,527.89 770.76,530.51</shape>
   </junction>

   <junction id="2" type="DEAD_END" x="484.22" y="375.24">
      <inclanes>1_0 3_0</inclanes>
      <intlanes></intlanes>
      <shape>488.69,370.80 485.59,370.02 483.80,371.95 484.83,374.98</shape>
   </junction>

   <junction id="3" type="priority" x="145.93" y="444.25">
      <inclanes>4_0 13_0</inclanes>
      <intlanes>:3_0_0 :3_1_0 :3_2_0 :3_3_0 :3_4_0 :3_5_0 :3_6_0 :3_7_0</intlanes>
      <shape>152.06,450.09 154.28,447.79 154.69,446.59 154.36,443.40 146.51,439.85 143.34,439.40 142.18,439.72 139.70,441.73 138.73,445.27 139.15,448.44 140.04,449.61 142.97,450.89</shape>
   </junction>

   <junction id="4" type="priority" x="772.04" y="0.00">
      <inclanes>19_0</inclanes>
      <intlanes>:4_0_0 :4_1_0</intlanes>
      <shape>776.28,3.37 778.29,0.88 770.56,-3.23 770.59,-0.03 771.81,3.67 775.00,3.92</shape>
   </junction>

   <junction id="5" type="priority" x="592.26" y="667.04">
      <inclanes>8_0</inclanes>
      <intlanes>:5_0_0</intlanes>
      <shape>595.42,667.79 592.29,667.13 590.16,669.52</shape>
   </junction>

   <junction id="6" type="DEAD_END" x="886.59" y="264.47">
      <inclanes>7_0</inclanes>
      <intlanes></intlanes>
      <shape>887.25,261.29 886.60,264.42</shape>
   </junction>

   <junction id="7" type="DEAD_END" x="445.13" y="535.76">
      <inclanes>9_0 17_0 10_0</inclanes>
      <intlanes></intlanes>
      <shape>468.77,556.72 466.41,558.88 448.79,537.54 447.33,534.69 468.77,561.21 470.90,558.82</shape>
   </junction>

   <junction id="8" type="DEAD_END" x="342.03" y="423.38">
      <inclanes></inclanes>
      <intlanes></intlanes>
      <shape>345.84,427.46 348.20,425.29 346.78,421.72 345.75,418.69 340.62,418.84 337.56,419.76 337.27,423.94 337.60,427.12</shape>
   </junction>

   <junction id="9" type="priority" x="378.57" y="153.90">
      <inclanes>11_0</inclanes>
      <intlanes>:9_0_0</intlanes>
      <shape>379.86,158.51 381.54,155.78 377.01,157.05 379.86,158.51</shape>
   </junction>



   <succ edge="0" lane="0_0" junction="0">
      <succlane lane="8_0" via=":0_2_0" yield="1" dir="s" state="m"/>
      <succlane lane="17_0" via=":0_3_0" yield="1" dir="l" state="m"/>
   </succ>

   <succ edge="1" lane="1_0" junction="2">
      <succlane lane="SUMO_NO_DESTINATION" yield="1" dir="s" state="O"/>
   </succ>

   <succ edge="10" lane="10_0" junction="7">
      <succlane lane="SUMO_NO_DESTINATION" yield="1" dir="s" state="O"/>
   </succ>

   <succ edge="11" lane="11_0" junction="9">
      <succlane lane="5_0" via=":9_0_0" yield="0" dir="r" state="M"/>
   </succ>

   <succ edge="12" lane="12_0" junction="10">
      <succlane lane="SUMO_NO_DESTINATION" yield="1" dir="s" state="O"/>
   </succ>

   <succ edge="13" lane="13_0" junction="3">
      <succlane lane="18_0" via=":3_4_0" yield="0" dir="r" state="M"/>
      <succlane lane="15_0" via=":3_5_0" yield="1" dir="R" state="m"/>
      <succlane lane="14_0" via=":3_6_0" yield="0" dir="s" state="M"/>
      <succlane lane="16_0" via=":3_7_0" yield="1" dir="l" state="m"/>
   </succ>

   <succ edge="14" lane="14_0" junction="12">
      <succlane lane="SUMO_NO_DESTINATION" yield="1" dir="s" state="O"/>
   </succ>

   <succ edge="15" lane="15_0" junction="13">
      <succlane lane="SUMO_NO_DESTINATION" yield="1" dir="s" state="O"/>
   </succ>

   <succ edge="16" lane="16_0" junction="14">
      <succlane lane="SUMO_NO_DESTINATION" yield="1" dir="s" state="O"/>
   </succ>

   <succ edge="17" lane="17_0" junction="7">
      <succlane lane="SUMO_NO_DESTINATION" yield="1" dir="s" state="O"/>
   </succ>

   <succ edge="18" lane="18_0" junction="15">
      <succlane lane="SUMO_NO_DESTINATION" yield="1" dir="s" state="O"/>
   </succ>

   <succ edge="19" lane="19_0" junction="4">
      <succlane lane="20_0" via=":4_0_0" yield="0" dir="s" state="M"/>
      <succlane lane="6_0" via=":4_1_0" yield="0" dir="l" state="M"/>
   </succ>

   <succ edge="2" lane="2_0" junction="10">
      <succlane lane="SUMO_NO_DESTINATION" yield="1" dir="s" state="O"/>
   </succ>

   <succ edge="20" lane="20_0" junction="16">
      <succlane lane="SUMO_NO_DESTINATION" yield="1" dir="s" state="O"/>
   </succ>

   <succ edge="21" lane="21_0" junction="17">
      <succlane lane="7_0" via=":17_1_0" yield="1" dir="s" state="m"/>
   </succ>

   <succ edge="22" lane="22_0" junction="18">
      <succlane lane="19_0" via=":18_0_0" yield="0" dir="l" state="M"/>
   </succ>

   <succ edge="23" lane="23_0" junction="0">
      <succlane lane="8_0" via=":0_0_0" yield="0" dir="r" state="M"/>
      <succlane lane="17_0" via=":0_1_0" yield="0" dir="R" state="M"/>
   </succ>

   <succ edge="3" lane="3_0" junction="2">
      <succlane lane="SUMO_NO_DESTINATION" yield="1" dir="s" state="O"/>
   </succ>

   <succ edge="4" lane="4_0" junction="3">
      <succlane lane="16_0" via=":3_0_0" yield="0" dir="r" state="M"/>
      <succlane lane="18_0" via=":3_1_0" yield="1" dir="s" state="m"/>
      <succlane lane="15_0" via=":3_2_0" yield="1" dir="L" state="m"/>
      <succlane lane="14_0" via=":3_3_0" yield="1" dir="l" state="m"/>
   </succ>

   <succ edge="5" lane="5_0" junction="10">
      <succlane lane="SUMO_NO_DESTINATION" yield="1" dir="s" state="O"/>
   </succ>

   <succ edge="6" lane="6_0" junction="17">
      <succlane lane="7_0" via=":17_0_0" yield="0" dir="r" state="M"/>
   </succ>

   <succ edge="7" lane="7_0" junction="6">
      <succlane lane="SUMO_NO_DESTINATION" yield="1" dir="s" state="O"/>
   </succ>

   <succ edge="8" lane="8_0" junction="5">
      <succlane lane="9_0" via=":5_0_0" yield="0" dir="l" state="M"/>
   </succ>

   <succ edge="9" lane="9_0" junction="7">
      <succlane lane="SUMO_NO_DESTINATION" yield="1" dir="s" state="O"/>
   </succ>


   <succ edge=":0_0" lane=":0_0_0" junction="0">
      <succlane lane="8_0" tl="" linkno="" yield="0" dir="s" state="M"/>
   </succ>
   <succ edge=":0_1" lane=":0_1_0" junction="0">
      <succlane lane="17_0" tl="" linkno="" yield="0" dir="s" state="M"/>
   </succ>
   <succ edge=":0_2" lane=":0_2_0" junction="0">
      <succlane lane="8_0" tl="" linkno="" yield="0" dir="s" state="M"/>
   </succ>
   <succ edge=":0_3" lane=":0_3_0" junction="0">
      <succlane lane="17_0" tl="" linkno="" yield="0" dir="s" state="M"/>
   </succ>
   <succ edge=":17_0" lane=":17_0_0" junction="17">
      <succlane lane="7_0" tl="" linkno="" yield="0" dir="s" state="M"/>
   </succ>
   <succ edge=":17_1" lane=":17_1_0" junction="17">
      <succlane lane="7_0" tl="" linkno="" yield="0" dir="s" state="M"/>
   </succ>
   <succ edge=":18_0" lane=":18_0_0" junction="18">
      <succlane lane="19_0" tl="" linkno="" yield="0" dir="s" state="M"/>
   </succ>
   <succ edge=":3_0" lane=":3_0_0" junction="3">
      <succlane lane="16_0" tl="" linkno="" yield="0" dir="s" state="M"/>
   </succ>
   <succ edge=":3_1" lane=":3_1_0" junction="3">
      <succlane lane="18_0" tl="" linkno="" yield="0" dir="s" state="M"/>
   </succ>
   <succ edge=":3_2" lane=":3_2_0" junction="3">
      <succlane lane="15_0" tl="" linkno="" yield="0" dir="s" state="M"/>
   </succ>
   <succ edge=":3_3" lane=":3_3_0" junction="3">
      <succlane lane="14_0" tl="" linkno="" yield="0" dir="s" state="M"/>
   </succ>
   <succ edge=":3_4" lane=":3_4_0" junction="3">
      <succlane lane="18_0" tl="" linkno="" yield="0" dir="s" state="M"/>
   </succ>
   <succ edge=":3_5" lane=":3_5_0" junction="3">
      <succlane lane="15_0" tl="" linkno="" yield="0" dir="s" state="M"/>
   </succ>
   <succ edge=":3_6" lane=":3_6_0" junction="3">
      <succlane lane="14_0" tl="" linkno="" yield="0" dir="s" state="M"/>
   </succ>
   <succ edge=":3_7" lane=":3_7_0" junction="3">
      <succlane lane="16_0" tl="" linkno="" yield="0" dir="s" state="M"/>
   </succ>
   <succ edge=":4_0" lane=":4_0_0" junction="4">
      <succlane lane="20_0" tl="" linkno="" yield="0" dir="s" state="M"/>
   </succ>
   <succ edge=":4_1" lane=":4_1_0" junction="4">
      <succlane lane="6_0" tl="" linkno="" yield="0" dir="s" state="M"/>
   </succ>
   <succ edge=":5_0" lane=":5_0_0" junction="5">
      <succlane lane="9_0" tl="" linkno="" yield="0" dir="s" state="M"/>
   </succ>
   <succ edge=":9_0" lane=":9_0_0" junction="9">
      <succlane lane="5_0" tl="" linkno="" yield="0" dir="s" state="M"/>
   </succ>

</net>
