<?xml version="1.0"?>

<!-- generated on Sun May  3 18:54:36 2009 by SUMO netconvert Version 0.10.2
<configuration>

   <input>
      <xml-node-files>cologne.nod.xml</xml-node-files>
      <xml-edge-files>cologne.edg.xml</xml-edge-files>
   </input>

</configuration>
-->

<net>

   <net-offset>-9556.69,-12865.00</net-offset>
   <conv-boundary>0.00,0.00,6364.31,4210.00</conv-boundary>
   <orig-boundary>9556.69,12865.00,15921.00,17075.00</orig-boundary>
   <orig-proj>!</orig-proj>

   <edge id=":107800655_0" function="internal">
      <lanes>
         <lane id=":107800655_0_0" depart="0" maxspeed="27.78" length="12.57" >446.65,2410.45 447.11,2406.78 447.78,2404.32 448.70,2401.91 449.91,2398.37</lane>
      </lanes>
   </edge>

   <edge id=":107800655_1" function="internal">
      <lanes>
         <lane id=":107800655_1_0" depart="0" maxspeed="27.78" length="11.86" >449.94,2410.72 450.38,2407.25 451.03,2404.94 451.91,2402.67 453.06,2399.33</lane>
      </lanes>
   </edge>

   <edge id=":107800655_2" function="internal">
      <lanes>
         <lane id=":107800655_2_0" depart="0" maxspeed="27.78" length="13.10" >449.94,2410.72 450.70,2406.18 452.06,2404.21 454.02,2404.80 456.58,2407.95</lane>
      </lanes>
   </edge>

   <edge id=":107800655_3" function="internal">
      <lanes>
         <lane id=":107800655_3_0" depart="0" maxspeed="27.78" length="7.34" >449.94,2410.72 450.37,2408.33 451.15,2407.37 452.30,2407.84 453.81,2409.74</lane>
      </lanes>
   </edge>

   <edge id=":187962117_0" function="internal">
      <lanes>
         <lane id=":187962117_0_0" depart="0" maxspeed="22.22" length="2.03" >6341.69,2970.12 6342.03,2970.54 6342.43,2970.80 6342.90,2970.91 6343.43,2970.85</lane>
      </lanes>
   </edge>

   <edge id=":187962119_0" function="internal">
      <lanes>
         <lane id=":187962119_0_0" depart="0" maxspeed="22.22" length="12.15" >6352.93,2968.63 6355.13,2968.72 6357.19,2970.07 6359.13,2972.66 6360.93,2976.50</lane>
      </lanes>
   </edge>

   <edge id=":187962119_1" function="internal">
      <lanes>
         <lane id=":187962119_1_0" depart="0" maxspeed="18.06" length="6.18" >6352.93,2968.63 6354.83,2968.72 6355.83,2969.36 6355.92,2970.54 6355.10,2972.26</lane>
      </lanes>
   </edge>

   <edge id=":187962149_0" function="internal">
      <lanes>
         <lane id=":187962149_0_0" depart="0" maxspeed="18.06" length="5.14" >6171.04,3709.05 6172.30,3709.52 6173.45,3709.46 6174.49,3708.88 6175.42,3707.77</lane>
      </lanes>
   </edge>

   <edge id=":187962149_1" function="internal">
      <lanes>
         <lane id=":187962149_1_0" depart="0" maxspeed="27.78" length="13.51" >6171.04,3709.05 6174.56,3710.96 6177.03,3712.17 6179.55,3713.27 6183.23,3714.87</lane>
      </lanes>
   </edge>

   <edge id=":187962149_2" function="internal">
      <lanes>
         <lane id=":187962149_2_0" depart="0" maxspeed="27.78" length="13.81" >6169.43,3711.93 6173.03,3713.89 6175.55,3715.12 6178.13,3716.25 6181.89,3717.89</lane>
      </lanes>
   </edge>

   <edge id=":187962149_3" function="internal">
      <lanes>
         <lane id=":187962149_3_0" depart="0" maxspeed="20.84" length="12.16" >6169.43,3711.93 6173.33,3714.49 6175.34,3716.77 6175.48,3718.77 6173.72,3720.48</lane>
      </lanes>
   </edge>

   <edge id=":187962149_4" function="internal">
      <lanes>
         <lane id=":187962149_4_0" depart="0" maxspeed="20.84" length="8.06" >6169.43,3711.93 6171.97,3713.61 6173.25,3715.12 6173.28,3716.47 6172.06,3717.64</lane>
      </lanes>
   </edge>

   <edge id=":187962178_0" function="internal">
      <lanes>
         <lane id=":187962178_0_0" depart="0" maxspeed="27.78" length="6.03" >5995.19,4105.34 5997.03,4105.34 5998.05,4104.76 5998.24,4103.60 5997.60,4101.87</lane>
      </lanes>
   </edge>

   <edge id=":187962178_1" function="internal">
      <lanes>
         <lane id=":187962178_1_0" depart="0" maxspeed="27.78" length="10.25" >5995.19,4105.34 5998.71,4105.43 6000.77,4104.63 6001.38,4102.93 6000.53,4100.35</lane>
      </lanes>
   </edge>

   <edge id=":187962178_2" function="internal">
      <lanes>
         <lane id=":187962178_2_0" depart="0" maxspeed="27.78" length="12.35" >5995.19,4105.34 6000.33,4105.95 6004.09,4106.30 6006.47,4106.41 6007.48,4106.26</lane>
      </lanes>
   </edge>

   <edge id=":187962178_3" function="internal">
      <lanes>
         <lane id=":187962178_3_0" depart="0" maxspeed="27.78" length="15.02" >5994.77,4108.61 6000.63,4109.24 6005.06,4109.47 6008.07,4109.31 6009.65,4108.74</lane>
      </lanes>
   </edge>

   <edge id=":187962205_0" function="internal">
      <lanes>
         <lane id=":187962205_0_0" depart="0" maxspeed="27.78" length="12.96" >4791.07,3941.03 4788.54,3938.98 4787.62,3936.50 4788.33,3933.60 4790.66,3930.26</lane>
      </lanes>
   </edge>

   <edge id=":187962205_1" function="internal">
      <lanes>
         <lane id=":187962205_1_0" depart="0" maxspeed="27.78" length="6.77" >4792.66,3938.14 4791.54,3937.15 4791.24,3935.87 4791.77,3934.30 4793.13,3932.44</lane>
      </lanes>
   </edge>

   <edge id=":187962205_2" function="internal">
      <lanes>
         <lane id=":187962205_2_0" depart="0" maxspeed="27.78" length="11.18" >4780.64,3934.55 4783.88,3933.74 4786.24,3933.30 4788.30,3932.42 4790.66,3930.26</lane>
      </lanes>
   </edge>

   <edge id=":187962205_3" function="internal">
      <lanes>
         <lane id=":187962205_3_0" depart="0" maxspeed="27.78" length="12.92" >4781.66,3937.69 4785.39,3936.71 4788.08,3936.11 4790.42,3934.98 4793.13,3932.44</lane>
      </lanes>
   </edge>

   <edge id=":216430504_0" function="internal">
      <lanes>
         <lane id=":216430504_0_0" depart="0" maxspeed="27.78" length="10.01" >5726.08,3459.44 5723.53,3459.05 5721.15,3459.33 5718.92,3460.26 5716.84,3461.84</lane>
      </lanes>
   </edge>

   <edge id=":216430504_1" function="internal">
      <lanes>
         <lane id=":216430504_1_0" depart="0" maxspeed="27.78" length="13.23" >5726.94,3456.25 5723.07,3455.80 5720.25,3456.24 5717.54,3456.40 5714.00,3455.14</lane>
      </lanes>
   </edge>

   <edge id=":216430504_2" function="internal">
      <lanes>
         <lane id=":216430504_2_0" depart="0" maxspeed="27.78" length="13.18" >5725.24,3452.23 5722.91,3455.12 5720.48,3456.29 5717.75,3457.24 5714.56,3459.46</lane>
      </lanes>
   </edge>

   <edge id=":216430504_3" function="internal">
      <lanes>
         <lane id=":216430504_3_0" depart="0" maxspeed="27.78" length="7.90" >5722.34,3450.64 5721.08,3452.28 5719.53,3453.10 5717.71,3453.09 5715.61,3452.25</lane>
      </lanes>
   </edge>

   <edge id=":216430513_0" function="internal">
      <lanes>
         <lane id=":216430513_0_0" depart="0" maxspeed="27.78" length="13.28" >5692.37,3443.09 5689.40,3440.74 5688.05,3438.36 5686.86,3435.77 5684.33,3432.79</lane>
      </lanes>
   </edge>

   <edge id=":216430513_1" function="internal">
      <lanes>
         <lane id=":216430513_1_0" depart="0" maxspeed="27.78" length="8.11" >5693.98,3440.20 5692.12,3438.83 5691.10,3437.25 5690.92,3435.45 5691.57,3433.44</lane>
      </lanes>
   </edge>

   <edge id=":216430513_2" function="internal">
      <lanes>
         <lane id=":216430513_2_0" depart="0" maxspeed="27.78" length="10.01" >5685.19,3444.31 5685.39,3441.70 5684.95,3439.32 5683.87,3437.17 5682.15,3435.26</lane>
      </lanes>
   </edge>

   <edge id=":216430513_3" function="internal">
      <lanes>
         <lane id=":216430513_3_0" depart="0" maxspeed="27.78" length="13.24" >5688.43,3444.93 5688.56,3441.03 5687.89,3438.22 5687.53,3435.53 5688.62,3431.96</lane>
      </lanes>
   </edge>

   <edge id=":216430517_0" function="internal">
      <lanes>
         <lane id=":216430517_0_0" depart="0" maxspeed="25.00" length="11.56" >5698.80,3401.77 5702.87,3402.24 5706.07,3402.18 5708.41,3401.59 5709.89,3400.48</lane>
      </lanes>
   </edge>

   <edge id=":216430517_1" function="internal">
      <lanes>
         <lane id=":216430517_1_0" depart="0" maxspeed="27.78" length="12.57" >5698.80,3401.77 5702.50,3402.29 5705.06,3402.63 5707.52,3403.29 5710.94,3404.73</lane>
      </lanes>
   </edge>

   <edge id=":216430517_2" function="internal">
      <lanes>
         <lane id=":216430517_2_0" depart="0" maxspeed="27.78" length="11.66" >5698.27,3405.03 5701.71,3405.50 5704.08,3405.80 5706.37,3406.39 5709.54,3407.72</lane>
      </lanes>
   </edge>

   <edge id=":216430517_3" function="internal">
      <lanes>
         <lane id=":216430517_3_0" depart="0" maxspeed="25.00" length="12.99" >5700.25,3408.91 5702.54,3405.74 5705.01,3404.04 5707.51,3402.67 5709.89,3400.48</lane>
      </lanes>
   </edge>

   <edge id=":216430517_4" function="internal">
      <lanes>
         <lane id=":216430517_4_0" depart="0" maxspeed="27.78" length="7.79" >5703.19,3410.40 5704.46,3408.52 5705.93,3407.44 5707.63,3407.17 5709.54,3407.72</lane>
      </lanes>
   </edge>

   <edge id=":216430521_0" function="internal">
      <lanes>
         <lane id=":216430521_0_0" depart="0" maxspeed="25.00" length="14.20" >5738.83,3413.88 5739.02,3417.09 5740.32,3419.73 5742.51,3422.47 5745.35,3426.00</lane>
      </lanes>
   </edge>

   <edge id=":216430521_1" function="internal">
      <lanes>
         <lane id=":216430521_1_0" depart="0" maxspeed="25.00" length="14.71" >5738.83,3413.88 5739.00,3417.33 5739.69,3420.57 5739.84,3424.06 5738.40,3428.27</lane>
      </lanes>
   </edge>

   <edge id=":216430521_2" function="internal">
      <lanes>
         <lane id=":216430521_2_0" depart="0" maxspeed="27.78" length="14.66" >5735.02,3415.99 5738.78,3418.03 5741.01,3419.97 5742.84,3422.43 5745.35,3426.00</lane>
      </lanes>
   </edge>

   <edge id=":216430521_3" function="internal">
      <lanes>
         <lane id=":216430521_3_0" depart="0" maxspeed="27.78" length="13.03" >5733.63,3418.98 5736.95,3420.81 5738.90,3422.57 5740.48,3424.78 5742.70,3427.97</lane>
      </lanes>
   </edge>

   <edge id=":216430521_4" function="internal">
      <lanes>
         <lane id=":216430521_4_0" depart="0" maxspeed="27.78" length="9.16" >5733.63,3418.98 5735.56,3420.31 5736.52,3422.04 5736.50,3424.16 5735.50,3426.68</lane>
      </lanes>
   </edge>

   <edge id=":216448297_0" function="internal">
      <lanes>
         <lane id=":216448297_0_0" depart="0" maxspeed="27.78" length="20.01" >5686.20,3491.15 5681.09,3495.16 5677.91,3495.55 5676.66,3492.34 5677.34,3485.51</lane>
      </lanes>
   </edge>

   <edge id=":216448297_1" function="internal">
      <lanes>
         <lane id=":216448297_1_0" depart="0" maxspeed="27.78" length="8.02" >5683.92,3488.76 5681.95,3490.28 5680.74,3490.35 5680.28,3488.97 5680.58,3486.13</lane>
      </lanes>
   </edge>

   <edge id=":216448297_2" function="internal">
      <lanes>
         <lane id=":216448297_2_0" depart="0" maxspeed="20.84" length="4.83" >5675.87,3490.11 5677.34,3485.51</lane>
      </lanes>
   </edge>

   <edge id=":216448297_3" function="internal">
      <lanes>
         <lane id=":216448297_3_0" depart="0" maxspeed="20.84" length="5.43" >5678.94,3491.31 5680.58,3486.13</lane>
      </lanes>
   </edge>

   <edge id=":216469185_0" function="internal">
      <lanes>
         <lane id=":216469185_0_0" depart="0" maxspeed="22.22" length="7.42" >5079.98,3682.27 5079.00,3683.01 5078.05,3684.30 5077.15,3686.14 5076.29,3688.53</lane>
      </lanes>
   </edge>

   <edge id=":216469185_1" function="internal">
      <lanes>
         <lane id=":216469185_1_0" depart="0" maxspeed="22.22" length="6.23" >5079.98,3682.27 5078.08,3682.93 5076.54,3683.01 5075.34,3682.50 5074.51,3681.40</lane>
      </lanes>
   </edge>

   <edge id=":216469197_0" function="internal">
      <lanes>
         <lane id=":216469197_0_0" depart="0" maxspeed="22.22" length="5.10" >5069.23,3670.26 5068.44,3669.08 5067.49,3668.47 5066.35,3668.43 5065.04,3668.96</lane>
      </lanes>
   </edge>

   <edge id=":216469197_1" function="internal">
      <lanes>
         <lane id=":216469197_1_0" depart="0" maxspeed="22.22" length="8.09" >5069.23,3670.26 5068.15,3667.54 5067.77,3665.41 5068.09,3663.85 5069.11,3662.87</lane>
      </lanes>
   </edge>

   <edge id=":216469206_0" function="internal">
      <lanes>
         <lane id=":216469206_0_0" depart="0" maxspeed="25.00" length="10.47" >5093.18,3651.78 5091.90,3655.47 5091.13,3658.39 5090.87,3660.53 5091.10,3661.90</lane>
      </lanes>
   </edge>

   <edge id=":216469206_1" function="internal">
      <lanes>
         <lane id=":216469206_1_0" depart="0" maxspeed="22.22" length="10.30" >5084.27,3655.18 5085.74,3655.08 5087.37,3656.16 5089.16,3658.43 5091.10,3661.90</lane>
      </lanes>
   </edge>

   <edge id=":216469234_0" function="internal">
      <lanes>
         <lane id=":216469234_0_0" depart="0" maxspeed="25.00" length="39.78" >4831.46,3888.83 4821.14,3902.76 4813.80,3912.76 4809.44,3918.85 4808.07,3921.00</lane>
      </lanes>
   </edge>

   <edge id=":216469234_1" function="internal">
      <lanes>
         <lane id=":216469234_1_0" depart="0" maxspeed="27.78" length="30.86" >4823.81,3892.69 4816.59,3901.62 4812.04,3909.04 4810.15,3914.95 4810.92,3919.35</lane>
      </lanes>
   </edge>

   <edge id=":216469234_2" function="internal">
      <lanes>
         <lane id=":216469234_2_0" depart="0" maxspeed="27.78" length="21.94" >4819.34,3902.75 4813.69,3909.49 4809.93,3914.78 4808.05,3918.62 4808.07,3921.00</lane>
      </lanes>
   </edge>

   <edge id=":216469245_0" function="internal">
      <lanes>
         <lane id=":216469245_0_0" depart="0" maxspeed="13.89" length="2.64" >4841.84,3694.97 4841.15,3694.74 4840.56,3694.79 4840.06,3695.11 4839.67,3695.72</lane>
      </lanes>
   </edge>

   <edge id=":216469245_1" function="internal">
      <lanes>
         <lane id=":216469245_1_0" depart="0" maxspeed="13.89" length="8.08" >4843.33,3692.03 4841.23,3691.32 4839.42,3691.46 4837.90,3692.46 4836.68,3694.31</lane>
      </lanes>
   </edge>

   <edge id=":216469284_0" function="internal">
      <lanes>
         <lane id=":216469284_0_0" depart="0" maxspeed="18.06" length="6.56" >4732.92,3922.78 4732.42,3923.03 4731.19,3923.27 4729.20,3923.52 4726.47,3923.76</lane>
      </lanes>
   </edge>

   <edge id=":216469438_0" function="internal">
      <lanes>
         <lane id=":216469438_0_0" depart="0" maxspeed="22.22" length="2.92" >3671.31,4004.54 3668.40,4004.41</lane>
      </lanes>
   </edge>

   <edge id=":216469438_1" function="internal">
      <lanes>
         <lane id=":216469438_1_0" depart="0" maxspeed="18.06" length="8.46" >3671.31,4004.54 3668.37,4004.51 3666.34,4003.90 3665.22,4002.72 3665.02,4000.96</lane>
      </lanes>
   </edge>

   <edge id=":216469438_2" function="internal">
      <lanes>
         <lane id=":216469438_2_0" depart="0" maxspeed="18.06" length="5.26" >3671.31,4004.54 3669.83,4004.44 3668.83,4003.88 3668.32,4002.85 3668.29,4001.37</lane>
      </lanes>
   </edge>

   <edge id=":216469485_0" function="internal">
      <lanes>
         <lane id=":216469485_0_0" depart="0" maxspeed="25.00" length="5.52" >3601.55,4014.48 3600.02,4014.97 3599.20,4015.79 3599.11,4016.94 3599.74,4018.42</lane>
      </lanes>
   </edge>

   <edge id=":216469485_1" function="internal">
      <lanes>
         <lane id=":216469485_1_0" depart="0" maxspeed="27.78" length="15.74" >3587.67,4011.18 3590.50,4010.25 3593.45,4011.15 3596.53,4013.87 3599.74,4018.42</lane>
      </lanes>
   </edge>

   <edge id=":216469485_2" function="internal">
      <lanes>
         <lane id=":216469485_2_0" depart="0" maxspeed="27.78" length="10.41" >3589.50,4013.93 3590.96,4013.66 3592.67,4014.59 3594.66,4016.75 3596.91,4020.11</lane>
      </lanes>
   </edge>

   <edge id=":216475538_0" function="internal">
      <lanes>
         <lane id=":216475538_0_0" depart="0" maxspeed="27.78" length="9.05" >4816.46,3928.93 4824.63,3932.80</lane>
      </lanes>
   </edge>

   <edge id=":216475538_1" function="internal">
      <lanes>
         <lane id=":216475538_1_0" depart="0" maxspeed="27.78" length="12.02" >4813.60,3930.58 4815.62,3933.30 4817.67,3934.55 4820.22,3935.17 4823.73,3935.98</lane>
      </lanes>
   </edge>

   <edge id=":216475538_2" function="internal">
      <lanes>
         <lane id=":216475538_2_0" depart="0" maxspeed="27.78" length="9.91" >4813.60,3930.58 4815.44,3934.03 4816.52,3936.70 4816.83,3938.59 4816.37,3939.70</lane>
      </lanes>
   </edge>

   <edge id=":216475538_3" function="internal">
      <lanes>
         <lane id=":216475538_3_0" depart="0" maxspeed="27.78" length="7.18" >4813.60,3930.58 4814.68,3932.78 4815.14,3934.62 4814.99,3936.10 4814.22,3937.20</lane>
      </lanes>
   </edge>

   <edge id=":216475545_0" function="internal">
      <lanes>
         <lane id=":216475545_0_0" depart="0" maxspeed="27.78" length="5.98" >4808.14,3946.78 4806.83,3947.64 4805.46,3948.03 4804.05,3947.93 4802.59,3947.36</lane>
      </lanes>
   </edge>

   <edge id=":216475545_1" function="internal">
      <lanes>
         <lane id=":216475545_1_0" depart="0" maxspeed="27.78" length="1.95" >4805.99,3944.27 4805.56,3944.56 4805.12,3944.68 4804.65,3944.65 4804.18,3944.46</lane>
      </lanes>
   </edge>

   <edge id=":216491910_0" function="internal">
      <lanes>
         <lane id=":216491910_0_0" depart="0" maxspeed="27.78" length="9.48" >3601.05,4020.60 3609.50,4024.88</lane>
      </lanes>
   </edge>

   <edge id=":216491910_1" function="internal">
      <lanes>
         <lane id=":216491910_1_0" depart="0" maxspeed="27.78" length="12.19" >3598.22,4022.30 3600.30,4025.05 3602.38,4026.34 3604.93,4027.03 3608.45,4028.01</lane>
      </lanes>
   </edge>

   <edge id=":216491910_2" function="internal">
      <lanes>
         <lane id=":216491910_2_0" depart="0" maxspeed="27.78" length="9.91" >3598.22,4022.30 3600.04,4025.68 3601.04,4028.32 3601.19,4030.22 3600.50,4031.37</lane>
      </lanes>
   </edge>

   <edge id=":216491910_3" function="internal">
      <lanes>
         <lane id=":216491910_3_0" depart="0" maxspeed="27.78" length="7.03" >3598.22,4022.30 3599.29,4024.44 3599.70,4026.23 3599.47,4027.64 3598.59,4028.69</lane>
      </lanes>
   </edge>

   <edge id=":216491918_0" function="internal">
      <lanes>
         <lane id=":216491918_0_0" depart="0" maxspeed="27.78" length="7.75" >3591.15,4038.06 3589.27,4039.03 3587.52,4039.18 3585.89,4038.51 3584.39,4037.02</lane>
      </lanes>
   </edge>

   <edge id=":216491918_1" function="internal">
      <lanes>
         <lane id=":216491918_1_0" depart="0" maxspeed="27.78" length="2.53" >3589.23,4035.37 3588.62,4035.69 3588.04,4035.74 3587.51,4035.52 3587.02,4035.03</lane>
      </lanes>
   </edge>

   <edge id=":216491985_0" function="internal">
      <lanes>
         <lane id=":216491985_0_0" depart="0" maxspeed="33.33" length="9.79" >2980.89,3893.62 2981.02,3897.06 2981.67,3898.36 2982.84,3897.51 2984.54,3894.51</lane>
      </lanes>
   </edge>

   <edge id=":216491985_1" function="internal">
      <lanes>
         <lane id=":216491985_1_0" depart="0" maxspeed="44.44" length="4.88" >2983.54,3899.28 2984.54,3894.51</lane>
      </lanes>
   </edge>

   <edge id=":216491985_2" function="internal">
      <lanes>
         <lane id=":216491985_2_0" depart="0" maxspeed="44.44" length="5.07" >2986.43,3900.89 2987.51,3895.94</lane>
      </lanes>
   </edge>

   <edge id=":216492078_0" function="internal">
      <lanes>
         <lane id=":216492078_0_0" depart="0" maxspeed="25.00" length="8.59" >3113.97,3800.83 3113.57,3803.91 3113.64,3806.28 3114.16,3807.94 3115.14,3808.90</lane>
      </lanes>
   </edge>

   <edge id=":216492078_1" function="internal">
      <lanes>
         <lane id=":216492078_1_0" depart="0" maxspeed="22.22" length="10.42" >3113.97,3800.83 3112.47,3803.67 3110.78,3804.74 3108.92,3804.03 3106.87,3801.54</lane>
      </lanes>
   </edge>

   <edge id=":216492078_2" function="internal">
      <lanes>
         <lane id=":216492078_2_0" depart="0" maxspeed="25.00" length="5.77" >3103.55,3804.15 3105.26,3804.55 3106.38,3804.26 3106.92,3803.25 3106.87,3801.54</lane>
      </lanes>
   </edge>

   <edge id=":216492078_3" function="internal">
      <lanes>
         <lane id=":216492078_3_0" depart="0" maxspeed="27.78" length="12.54" >3103.55,3804.15 3107.04,3805.44 3109.43,3806.32 3111.79,3807.30 3115.14,3808.90</lane>
      </lanes>
   </edge>

   <edge id=":216492078_4" function="internal">
      <lanes>
         <lane id=":216492078_4_0" depart="0" maxspeed="27.78" length="12.23" >3102.37,3807.23 3105.78,3808.49 3108.11,3809.34 3110.41,3810.30 3113.68,3811.85</lane>
      </lanes>
   </edge>

   <edge id=":241861093_0" function="internal">
      <lanes>
         <lane id=":241861093_0_0" depart="0" maxspeed="44.44" length="0.10" >3012.68,3835.96 3012.68,3835.96</lane>
      </lanes>
   </edge>

   <edge id=":241861093_1" function="internal">
      <lanes>
         <lane id=":241861093_1_0" depart="0" maxspeed="44.44" length="0.10" >3015.70,3837.30 3015.69,3837.30</lane>
      </lanes>
   </edge>

   <edge id=":241861097_0" function="internal">
      <lanes>
         <lane id=":241861097_0_0" depart="0" maxspeed="44.44" length="0.79" >3056.67,3737.50 3056.81,3736.72</lane>
      </lanes>
   </edge>

   <edge id=":241861097_1" function="internal">
      <lanes>
         <lane id=":241861097_1_0" depart="0" maxspeed="44.44" length="2.41" >3059.68,3738.85 3060.10,3736.47</lane>
      </lanes>
   </edge>

   <edge id=":241861108_0" function="internal">
      <lanes>
         <lane id=":241861108_0_0" depart="0" maxspeed="44.44" length="0.10" >3080.99,3750.94 3080.99,3750.94</lane>
      </lanes>
   </edge>

   <edge id=":241861108_1" function="internal">
      <lanes>
         <lane id=":241861108_1_0" depart="0" maxspeed="44.44" length="0.10" >3077.95,3749.67 3077.95,3749.67</lane>
      </lanes>
   </edge>

   <edge id=":247444610_0" function="internal">
      <lanes>
         <lane id=":247444610_0_0" depart="0" maxspeed="27.78" length="0.87" >2327.22,2816.77 2326.73,2816.04</lane>
      </lanes>
   </edge>

   <edge id=":247444610_1" function="internal">
      <lanes>
         <lane id=":247444610_1_0" depart="0" maxspeed="27.78" length="2.68" >2330.36,2815.77 2328.88,2813.54</lane>
      </lanes>
   </edge>

   <edge id=":247449769_0" function="internal">
      <lanes>
         <lane id=":247449769_0_0" depart="0" maxspeed="27.78" length="0.11" >1524.32,3795.44 1524.42,3795.40</lane>
      </lanes>
   </edge>

   <edge id=":247449769_1" function="internal">
      <lanes>
         <lane id=":247449769_1_0" depart="0" maxspeed="27.78" length="0.10" >1525.62,3798.47 1525.62,3798.47</lane>
      </lanes>
   </edge>

   <edge id=":255625652_0" function="internal">
      <lanes>
         <lane id=":255625652_0_0" depart="0" maxspeed="22.22" length="0.10" >863.86,3068.15 863.86,3068.15</lane>
      </lanes>
   </edge>

   <edge id=":255625653_0" function="internal">
      <lanes>
         <lane id=":255625653_0_0" depart="0" maxspeed="13.89" length="0.32" >1020.30,3083.83 1020.33,3083.51</lane>
      </lanes>
   </edge>

   <edge id=":255625653_1" function="internal">
      <lanes>
         <lane id=":255625653_1_0" depart="0" maxspeed="13.89" length="0.11" >1023.60,3083.94 1023.61,3083.84</lane>
      </lanes>
   </edge>

   <edge id=":255625828_0" function="internal">
      <lanes>
         <lane id=":255625828_0_0" depart="0" maxspeed="13.89" length="0.51" >1018.30,3142.28 1018.40,3141.78</lane>
      </lanes>
   </edge>

   <edge id=":255625828_1" function="internal">
      <lanes>
         <lane id=":255625828_1_0" depart="0" maxspeed="13.89" length="1.57" >1021.40,3143.42 1021.70,3141.89</lane>
      </lanes>
   </edge>

   <edge id=":255726919_0" function="internal">
      <lanes>
         <lane id=":255726919_0_0" depart="0" maxspeed="27.78" length="11.82" >427.09,2658.08 427.08,2654.57 427.24,2652.18 427.51,2649.79 427.85,2646.29</lane>
      </lanes>
   </edge>

   <edge id=":255726919_1" function="internal">
      <lanes>
         <lane id=":255726919_1_0" depart="0" maxspeed="27.78" length="11.47" >430.39,2657.99 430.38,2654.59 430.54,2652.27 430.81,2649.95 431.14,2646.56</lane>
      </lanes>
   </edge>

   <edge id=":255726919_2" function="internal">
      <lanes>
         <lane id=":255726919_2_0" depart="0" maxspeed="20.84" length="5.52" >430.39,2657.99 430.59,2656.62 431.26,2655.64 432.41,2655.04 434.04,2654.82</lane>
      </lanes>
   </edge>

   <edge id=":255726919_3" function="internal">
      <lanes>
         <lane id=":255726919_3_0" depart="0" maxspeed="20.84" length="5.31" >424.21,2648.71 425.69,2648.98 426.80,2648.66 427.51,2647.77 427.85,2646.29</lane>
      </lanes>
   </edge>

   <edge id=":255726919_4" function="internal">
      <lanes>
         <lane id=":255726919_4_0" depart="0" maxspeed="20.84" length="11.63" >423.17,2651.84 426.43,2652.42 428.84,2651.74 430.41,2649.78 431.14,2646.56</lane>
      </lanes>
   </edge>

   <edge id=":255726919_5" function="internal">
      <lanes>
         <lane id=":255726919_5_0" depart="0" maxspeed="13.89" length="10.98" >423.17,2651.84 426.27,2652.52 428.48,2652.35 430.74,2651.84 434.00,2651.52</lane>
      </lanes>
   </edge>

   <edge id=":255726920_0" function="internal">
      <lanes>
         <lane id=":255726920_0_0" depart="0" maxspeed="8.34" length="6.25" >498.99,2657.46 498.78,2656.13 499.20,2654.88 500.25,2653.71 501.95,2652.63</lane>
      </lanes>
   </edge>

   <edge id=":255726920_1" function="internal">
      <lanes>
         <lane id=":255726920_1_0" depart="0" maxspeed="13.89" length="5.56" >494.94,2650.62 500.42,2649.70</lane>
      </lanes>
   </edge>

   <edge id=":255726920_2" function="internal">
      <lanes>
         <lane id=":255726920_2_0" depart="0" maxspeed="13.89" length="7.08" >494.99,2653.92 501.95,2652.63</lane>
      </lanes>
   </edge>

   <edge id=":255731605_0" function="internal">
      <lanes>
         <lane id=":255731605_0_0" depart="0" maxspeed="13.89" length="2.38" >1230.33,3721.15 1229.77,3721.46 1229.41,3721.87 1229.26,3722.40 1229.32,3723.04</lane>
      </lanes>
   </edge>

   <edge id=":255731605_1" function="internal">
      <lanes>
         <lane id=":255731605_1_0" depart="0" maxspeed="13.89" length="7.30" >1229.21,3718.05 1227.47,3718.97 1226.37,3720.24 1225.92,3721.86 1226.12,3723.82</lane>
      </lanes>
   </edge>

   <edge id=":255731606_0" function="internal">
      <lanes>
         <lane id=":255731606_0_0" depart="0" maxspeed="20.84" length="10.36" >1260.82,3868.13 1261.25,3871.19 1261.45,3873.37 1262.03,3875.37 1263.61,3877.92</lane>
      </lanes>
   </edge>

   <edge id=":255731606_1" function="internal">
      <lanes>
         <lane id=":255731606_1_0" depart="0" maxspeed="20.84" length="11.81" >1257.58,3868.79 1258.11,3872.27 1258.41,3874.73 1259.14,3876.99 1260.97,3879.89</lane>
      </lanes>
   </edge>

   <edge id=":255731606_2" function="internal">
      <lanes>
         <lane id=":255731606_2_0" depart="0" maxspeed="27.78" length="12.47" >1253.27,3876.17 1255.80,3874.26 1258.37,3873.92 1260.97,3875.14 1263.61,3877.92</lane>
      </lanes>
   </edge>

   <edge id=":255731606_3" function="internal">
      <lanes>
         <lane id=":255731606_3_0" depart="0" maxspeed="27.78" length="6.45" >1255.68,3878.42 1256.89,3877.58 1258.17,3877.54 1259.53,3878.31 1260.97,3879.89</lane>
      </lanes>
   </edge>

   <edge id=":255738714_0" function="internal">
      <lanes>
         <lane id=":255738714_0_0" depart="0" maxspeed="18.06" length="8.07" >777.85,2921.06 778.82,2921.94 780.40,2922.54 782.62,2922.87 785.45,2922.94</lane>
      </lanes>
   </edge>

   <edge id=":255738714_1" function="internal">
      <lanes>
         <lane id=":255738714_1_0" depart="0" maxspeed="18.06" length="9.66" >777.85,2921.06 779.61,2923.36 781.47,2924.99 783.44,2925.95 785.52,2926.24</lane>
      </lanes>
   </edge>

   <edge id=":255738714_2" function="internal">
      <lanes>
         <lane id=":255738714_2_0" depart="0" maxspeed="22.22" length="10.51" >777.85,2921.06 779.52,2923.62 780.72,2925.47 781.88,2927.35 783.43,2929.97</lane>
      </lanes>
   </edge>

   <edge id=":255738722_0" function="internal">
      <lanes>
         <lane id=":255738722_0_0" depart="0" maxspeed="13.89" length="7.09" >1033.12,2917.72 1035.50,2917.54 1037.38,2917.12 1038.74,2916.44 1039.60,2915.52</lane>
      </lanes>
   </edge>

   <edge id=":255738722_1" function="internal">
      <lanes>
         <lane id=":255738722_1_0" depart="0" maxspeed="13.89" length="10.48" >1033.19,2921.02 1036.45,2920.72 1039.08,2919.98 1041.09,2918.79 1042.46,2917.16</lane>
      </lanes>
   </edge>

   <edge id=":255738722_2" function="internal">
      <lanes>
         <lane id=":255738722_2_0" depart="0" maxspeed="13.89" length="9.37" >1036.16,2924.24 1039.60,2915.52</lane>
      </lanes>
   </edge>

   <edge id=":255738722_3" function="internal">
      <lanes>
         <lane id=":255738722_3_0" depart="0" maxspeed="13.89" length="8.00" >1039.45,2924.57 1042.46,2917.16</lane>
      </lanes>
   </edge>

   <edge id=":255739418_0" function="internal">
      <lanes>
         <lane id=":255739418_0_0" depart="0" maxspeed="27.78" length="11.29" >436.33,3011.90 436.06,3008.56 435.98,3006.27 435.97,3003.97 435.93,3000.62</lane>
      </lanes>
   </edge>

   <edge id=":255739418_1" function="internal">
      <lanes>
         <lane id=":255739418_1_0" depart="0" maxspeed="27.78" length="11.06" >439.62,3011.58 439.35,3008.31 439.27,3006.07 439.27,3003.82 439.23,3000.54</lane>
      </lanes>
   </edge>

   <edge id=":255739418_2" function="internal">
      <lanes>
         <lane id=":255739418_2_0" depart="0" maxspeed="20.84" length="5.40" >439.62,3011.58 439.69,3010.04 440.25,3009.03 441.30,3008.58 442.85,3008.67</lane>
      </lanes>
   </edge>

   <edge id=":255739418_3" function="internal">
      <lanes>
         <lane id=":255739418_3_0" depart="0" maxspeed="20.84" length="5.26" >432.61,3003.48 434.10,3003.52 435.14,3003.06 435.75,3002.10 435.93,3000.62</lane>
      </lanes>
   </edge>

   <edge id=":255739418_4" function="internal">
      <lanes>