<nodes><node id="285968773" x="29823.75" y="24409.00" /><node id="60966830" x="18226.94" y="27922.50" /><node id="73618800" x="15333.88" y="31306.00" /><node id="73618803" x="15072.81" y="31073.00" /><node id="258384431" x="17650.88" y="29149.00" /><node id="285968778" x="29820.38" y="24419.50" /><node id="60966836" x="18470.94" y="27566.50" /><node id="260566420" x="14670.50" y="26551.50" /><node id="249420141" x="15247.19" y="28740.00" /><node id="270522844" x="30113.94" y="24920.50" /><node id="295533750" x="24800.69" y="31168.00" /><node id="295533752" x="24858.25" y="31170.50" /><node id="295533753" x="24917.19" y="31170.00" /><node id="295533754" x="24808.13" y="31154.00" /><node id="295533755" x="24859.06" y="31156.00" /><node id="295533756" x="24917.50" y="31155.50" /><node id="60966831" x="18234.06" y="27888.50" /><node id="274165777" x="18479.19" y="17082.00" /><node id="277796983" x="20667.25" y="26690.00" /><node id="300426358" x="14038.38" y="24400.00" /><node id="260566421" x="14756.88" y="26583.00" /><node id="292513160" x="17990.31" y="18694.50" /><node id="296972721" x="20175.63" y="16519.50" /><node id="300693571" x="16358.94" y="17809.00" /><node id="300042013" x="13468.56" y="24506.00" /><node id="53404290" x="29756.94" y="20683.50" /><node id="300042011" x="13465.63" y="24566.50" /><node id="300042016" x="13478.69" y="24482.00" /><node id="32345578" x="30292.56" y="24160.00" /><node id="300042018" x="13491.38" y="24422.00" /><node id="60951216" x="19081.75" y="29888.50" /><node id="63778442" x="13551.31" y="29206.00" /><node id="60951214" x="19001.13" y="29752.00" /><node id="288626171" x="16064.44" y="23778.00" /><node id="288626170" x="16685.38" y="23255.50" /><node id="63778445" x="13622.50" y="29212.00" /><node id="63778444" x="13611.63" y="29223.50" /><node id="242516057" x="13933.13" y="27400.50" /><node id="242516053" x="14360.06" y="27481.00" /><node id="242516051" x="13730.63" y="27547.00" /><node id="292391131" x="19980.50" y="31911.50" /><node id="50082761" x="24588.19" y="20878.00" /><node id="50082763" x="24735.63" y="20895.00" /><node id="50082765" x="24808.31" y="21199.00" /><node id="249420144" x="15411.56" y="28762.50" /><node id="253996757" x="19989.63" y="27820.00" /><node id="292949831" x="13881.69" y="29020.00" /><node id="268451159" x="21772.75" y="24342.00" /><node id="297311506" x="30610.94" y="27046.00" /><node id="73538068" x="16266.25" y="31063.50" /><node id="150560456" x="16976.19" y="23133.50" /><node id="297418436" x="25939.06" y="22758.00" /><node id="259528374" x="24668.63" y="20413.50" /><node id="259528375" x="24666.38" y="20361.50" /><node id="259528373" x="24794.75" y="20125.50" /><node id="259528370" x="24418.44" y="20493.50" /><node id="259528371" x="24767.50" y="20380.50" /><node id="300893511" x="20959.69" y="21106.50" /><node id="25729100" x="25085.19" y="31793.00" /><node id="25729106" x="26162.38" y="31184.00" /><node id="25729107" x="26152.75" y="31173.50" /><node id="254123051" x="14213.25" y="28629.00" /><node id="171087337" x="19151.50" y="22200.50" /><node id="96144501" x="22330.69" y="22888.50" /><node id="278862697" x="21017.50" y="28716.00" /><node id="278862696" x="20965.06" y="28531.00" /><node id="278862695" x="20865.63" y="28571.00" /><node id="278862694" x="20907.88" y="28691.50" /><node id="278862693" x="21000.00" y="28663.50" /><node id="278862692" x="20874.94" y="28701.50" /><node id="278862691" x="20889.88" y="28762.00" /><node id="278862690" x="20867.88" y="28671.00" /><node id="28122015" x="14818.44" y="28979.00" /><node id="277775369" x="20022.19" y="17219.50" /><node id="277775368" x="19828.13" y="17368.50" /><node id="28122010" x="14664.94" y="28650.50" /><node id="266413785" x="19427.81" y="16758.50" /><node id="266413786" x="19270.25" y="16930.00" /><node id="247915851" x="20592.75" y="16582.00" /><node id="60341526" x="19737.25" y="28362.50" /><node id="586377" x="25444.56" y="30691.00" /><node id="295533757" x="24858.75" y="31164.00" /><node id="586370" x="25080.63" y="30452.00" /><node id="278864697" x="20919.31" y="29065.50" /><node id="256549820" x="13728.81" y="28444.00" /><node id="279373621" x="24016.81" y="22684.00" /><node id="279373622" x="24089.81" y="22041.00" /><node id="259647818" x="27500.19" y="19225.50" /><node id="286617115" x="18522.81" y="22886.00" /><node id="286617114" x="18461.19" y="22806.00" /><node id="258855504" x="26827.13" y="17097.50" /><node id="286617111" x="18482.94" y="22791.00" /><node id="258855502" x="26896.94" y="17150.50" /><node id="286617113" x="18474.63" y="22920.50" /><node id="286617112" x="18416.38" y="22837.00" /><node id="286360738" x="19397.00" y="20255.00" /><node id="286617119" x="18514.81" y="22657.00" /><node id="249433328" x="15305.06" y="28920.00" /><node id="263032601" x="16193.81" y="27566.50" /><node id="263032600" x="16156.88" y="27605.50" /><node id="263032602" x="16115.38" y="27434.00" /><node id="263032605" x="15992.31" y="27309.50" /><node id="263032604" x="16106.44" y="27424.50" /><node id="263032607" x="15896.69" y="27341.00" /><node id="263032606" x="15961.38" y="27276.00" /><node id="263032609" x="16045.31" y="27491.00" /><node id="299462460" x="19622.00" y="31045.00" /><node id="248116164" x="14087.38" y="27139.50" /><node id="286605055" x="20260.06" y="17752.50" /><node id="286605054" x="20288.94" y="17690.00" /><node id="286605053" x="20241.88" y="17793.50" /><node id="248116162" x="14274.38" y="27238.00" /><node id="248116163" x="14290.44" y="27180.50" /><node id="28123304" x="15132.25" y="29069.50" /><node id="65155358" x="18241.69" y="28106.50" /><node id="28123306" x="14963.63" y="29075.00" /><node id="280525642" x="29921.94" y="24628.50" /><node id="28123302" x="14915.81" y="29213.00" /><node id="290816313" x="18053.56" y="21589.00" /><node id="290816317" x="17299.75" y="22986.00" /><node id="290816316" x="17328.69" y="23011.00" /><node id="290816315" x="17272.31" y="22962.00" /><node id="290816314" x="17240.31" y="22937.00" /><node id="290816318" x="16766.56" y="23855.50" /><node id="60271352" x="18984.81" y="28370.00" /><node id="278336147" x="17886.81" y="30742.00" /><node id="286309838" x="19842.94" y="22905.00" /><node id="286309836" x="20512.06" y="23207.00" /><node id="286309837" x="19572.31" y="22624.00" /><node id="286309833" x="19991.88" y="22093.00" /><node id="60271276" x="19087.56" y="28353.50" /><node id="286848868" x="17251.75" y="21037.00" /><node id="277289161" x="16430.44" y="26697.00" /><node id="258533872" x="22568.94" y="29332.00" /><node id="259626604" x="17551.19" y="30860.00" /><node id="259626606" x="17658.50" y="30796.50" /><node id="289226901" x="19134.56" y="21978.50" /><node id="283190544" x="22941.13" y="27025.00" /><node id="283190541" x="23093.38" y="27120.00" /><node id="204979396" x="16430.38" y="25952.00" /><node id="306259563" x="23458.06" y="20728.00" /><node id="288423837" x="21702.13" y="26808.00" /><node id="275018598" x="17397.56" y="16833.50" /><node id="306259565" x="23247.38" y="20934.50" /><node id="288885949" x="21752.00" y="28846.00" /><node id="474317" x="14515.00" y="30814.00" /><node id="474316" x="14503.63" y="30805.50" /><node id="281285599" x="23292.56" y="26952.00" /><node id="35921369" x="16175.94" y="28428.00" /><node id="243980690" x="17589.00" y="30039.50" /><node id="55072559" x="16474.00" y="29118.50" /><node id="74039375" x="15579.94" y="28340.00" /><node id="74039374" x="15659.25" y="28314.00" /><node id="249463078" x="19446.75" y="24526.50" /><node id="267927339" x="17026.19" y="30176.50" /><node id="267927335" x="17047.38" y="30177.50" /><node id="32345573" x="30126.44" y="24482.50" /><node id="60271388" x="18566.00" y="27486.00" /><node id="143426458" x="16783.13" y="31731.00" /><node id="161724697" x="13971.38" y="28978.00" /><node id="143426457" x="16798.88" y="31786.50" /><node id="304146207" x="27443.50" y="26125.50" /><node id="62428099" x="13733.56" y="31494.00" /><node id="292733757" x="16647.13" y="27738.50" /><node id="258856739" x="23654.38" y="19724.00" /><node id="87317731" x="14005.06" y="28480.50" /><node id="263250096" x="17978.69" y="31634.00" /><node id="292120691" x="21910.19" y="27353.50" /><node id="60945709" x="20402.63" y="28776.50" /><node id="60945708" x="20292.44" y="28747.50" /><node id="83549395" x="14324.31" y="29977.50" /><node id="263250091" x="17955.63" y="31370.50" /><node id="60945705" x="20260.75" y="29280.50" /><node id="60945704" x="20113.94" y="29227.00" /><node id="285980241" x="29765.88" y="24386.50" /><node id="60945706" x="20224.81" y="29126.00" /><node id="241752703" x="26348.25" y="16581.00" /><node id="308676163" x="24871.81" y="20142.00" /><node id="60945703" x="20158.00" y="29245.00" /><node id="285980244" x="29790.00" y="24406.50" /><node id="249463070" x="19433.00" y="24531.00" /><node id="308323884" x="24006.69" y="23301.00" /><node id="260558772" x="14454.56" y="27018.00" /><node id="260558775" x="14574.13" y="27060.50" /><node id="260558774" x="14567.81" y="27057.50" /><node id="221805753" x="14824.44" y="23252.00" /><node id="221805757" x="14861.13" y="23012.50" /><node id="278852584" x="22091.31" y="30015.50" /><node id="278852585" x="22159.94" y="29931.50" /><node id="244442836" x="14311.31" y="23847.00" /><node id="277285047" x="15953.56" y="27062.00" /><node id="278852581" x="22075.81" y="29946.50" /><node id="87743609" x="17187.69" y="30074.50" /><node id="254281809" x="14087.56" y="29098.00" /><node id="275558370" x="21039.06" y="25172.00" /><node id="278852588" x="22240.81" y="29878.00" /><node id="223741682" x="14746.38" y="29028.50" /><node id="29131905" x="23841.69" y="31462.00" /><node id="256495032" x="13454.06" y="29132.00" /><node id="223741687" x="14595.50" y="29026.50" /><node id="223741684" x="14807.94" y="29029.50" /><node id="81703447" x="25898.75" y="16418.50" /><node id="29131906" x="23759.56" y="31449.00" /><node id="247488729" x="21161.00" y="23711.00" /><node id="57281236" x="17040.38" y="29731.00" /><node id="300797406" x="21176.31" y="31423.50" /><node id="276523693" x="19511.38" y="17555.00" /><node id="276523692" x="19442.13" y="17609.00" /><node id="81703449" x="25832.13" y="16375.00" /><node id="60908155" x="18567.94" y="31433.50" /><node id="60951213" x="18976.94" y="29822.50" /><node id="289506340" x="22614.13" y="30576.50" /><node id="160677703" x="13852.31" y="29206.50" /><node id="81705472" x="25654.19" y="16424.50" /><node id="71448134" x="19064.94" y="28143.00" /><node id="81690930" x="25216.50" y="17068.00" /><node id="585241" x="23758.38" y="23475.50" /><node id="405920" x="29795.13" y="23794.50" /><node id="298076855" x="13740.25" y="21126.00" /><node id="405927" x="29203.94" y="24341.00" /><node id="585246" x="23431.31" y="23444.00" /><node id="405928" x="29188.81" y="24328.50" /><node id="298076858" x="13822.63" y="21362.50" /><node id="1406203" x="13440.31" y="29316.00" /><node id="278828858" x="20504.63" y="29841.00" /><node id="289506346" x="22577.50" y="30687.00" /><node id="278828856" x="20422.25" y="29816.00" /><node id="255095905" x="29807.31" y="15005.00" /><node id="248160655" x="13679.38" y="27487.50" /><node id="274096698" x="13557.75" y="26725.50" /><node id="277625371" x="14956.56" y="27533.50" /><node id="55054774" x="17224.50" y="29112.00" /><node id="268451099" x="22047.25" y="24454.50" /><node id="275849780" x="14389.75" y="21510.00" /><node id="30055819" x="22571.00" y="30740.50" /><node id="263032599" x="16122.88" y="27640.00" /><node id="268204466" x="16779.06" y="30762.50" /><node id="71567077" x="19688.50" y="27728.50" /><node id="71649669" x="20679.69" y="26100.50" /><node id="449777" x="15508.06" y="28803.00" /><node id="286848879" x="18112.38" y="20879.00" /><node id="449770" x="15306.13" y="29030.50" /><node id="286848874" x="18116.00" y="20719.00" /><node id="286848871" x="17343.63" y="21088.50" /><node id="286848872" x="17175.19" y="19886.00" /><node id="449778" x="15304.06" y="29017.00" /><node id="185718989" x="19485.69" y="20577.00" /><node id="266313901" x="18544.06" y="31625.00" /><node id="274154240" x="18675.00" y="17849.50" /><node id="264742202" x="14830.13" y="31001.50" /><node id="60368955" x="19195.81" y="29581.00" /><node id="60368954" x="19193.75" y="29664.00" /><node id="276519826" x="18396.19" y="17115.50" /><node id="60368951" x="19053.31" y="29620.00" /><node id="60368950" x="19073.81" y="29559.00" /><node id="288607967" x="17216.25" y="23650.00" /><node id="276519828" x="18366.50" y="17198.50" /><node id="28301389" x="22319.44" y="30490.00" /><node id="300880081" x="20420.31" y="21482.00" /><node id="300880087" x="20297.56" y="21556.00" /><node id="288317228" x="16300.63" y="22877.50" /><node id="69193250" x="28915.13" y="16983.50" /><node id="279919271" x="13584.25" y="26771.00" /><node id="279919270" x="13773.19" y="26895.50" /><node id="279919273" x="13847.56" y="26653.00" /><node id="279919272" x="13651.56" y="26732.00" /><node id="279919275" x="14058.38" y="26599.00" /><node id="279919274" x="13954.50" y="26608.50" /><node id="268876128" x="30103.56" y="23674.00" /><node id="443848" x="13449.56" y="28456.50" /><node id="256492099" x="13762.00" y="29744.00" /><node id="443842" x="13455.63" y="27922.00" /><node id="443847" x="13449.50" y="27908.00" /><node id="443845" x="13466.06" y="27946.00" /><node id="259528376" x="24573.50" y="20073.50" /><node id="266348596" x="29569.50" y="24833.00" /><node id="292427687" x="17686.19" y="18845.50" /><node id="290444833" x="28315.00" y="31876.50" /><node id="275557293" x="21768.06" y="24098.50" /><node id="275557292" x="21721.50" y="24189.00" /><node id="442718" x="15523.19" y="29548.00" /><node id="442719" x="15541.00" y="29525.50" /><node id="268452549" x="22455.19" y="24538.50" /><node id="269920258" x="16638.06" y="30964.50" /><node id="161734581" x="14065.31" y="29150.00" /><node id="442710" x="15863.25" y="29718.00" /><node id="28301394" x="23266.38" y="30695.00" /><node id="269920257" x="16714.56" y="30947.00" /><node id="442714" x="15676.00" y="29611.00" /><node id="273431181" x="16660.06" y="31659.50" /><node id="273431182" x="16611.69" y="31678.00" /><node id="288317596" x="15288.63" y="22423.50" /><node id="259628474" x="17896.69" y="31062.50" /><node id="28301396" x="23005.75" y="30673.50" /><node id="55438793" x="17245.00" y="29224.00" /><node id="265944261" x="14300.81" y="23896.50" /><node id="259079203" x="15020.94" y="31529.50" /><node id="50071257" x="29972.31" y="18357.00" /><node id="259079201" x="14993.25" y="31645.00" /><node id="78586861" x="16822.56" y="31626.50" /><node id="299462175" x="19811.44" y="31396.00" /><node id="259180411" x="13808.88" y="28750.50" /><node id="292681172" x="14135.31" y="29495.50" /><node id="292681170" x="14152.88" y="29611.50" /><node id="306261371" x="23864.88" y="20756.00" /><node id="258604892" x="24110.13" y="27495.00" /><node id="258604897" x="24028.38" y="27459.50" /><node id="204991547" x="16692.56" y="26705.50" /><node id="79733181" x="16086.38" y="30114.50" /><node id="256944940" x="16438.38" y="27641.00" /><node id="258411596" x="22004.69" y="29892.50" /><node id="258411597" x="22090.13" y="29637.00" /><node id="289471069" x="23119.63" y="30366.50" /><node id="292712190" x="19088.50" y="26827.50" /><node id="50119338" x="24092.06" y="18949.50" /><node id="32524344" x="13577.63" y="30885.00" /><node id="32524343" x="13698.44" y="30568.50" /><node id="32524342" x="13687.50" y="30568.00" /><node id="296975705" x="21836.38" y="17264.50" /><node id="50119337" x="24192.63" y="18804.00" /><node id="275208897" x="21736.69" y="22758.50" /><node id="25704758" x="24546.00" y="30553.00" /><node id="116074561" x="25338.13" y="17514.00" /><node id="116074560" x="25354.63" y="17574.50" /><node id="295975480" x="14838.44" y="29078.00" /><node id="296974033" x="21389.50" y="17128.00" /><node id="268450010" x="22477.56" y="24417.50" /><node id="274157133" x="18407.94" y="17627.50" /><node id="69229709" x="25425.63" y="25678.50" /><node id="256960991" x="16164.06" y="28180.50" /><node id="275556525" x="21553.44" y="24324.00" /><node id="256948391" x="15907.00" y="28105.50" /><node id="275556522" x="21423.69" y="24153.50" /><node id="275556523" x="21469.88" y="24193.50" /><node id="75089599" x="15201.25" y="30306.00" /><node id="75089598" x="15219.31" y="30398.00" /><node id="258570063" x="23264.44" y="28113.00" /><node id="258410178" x="21844.50" y="30007.00" /><node id="277433131" x="16394.81" y="31070.50" /><node id="260558397" x="14448.94" y="27040.50" /><node id="63445550" x="24105.25" y="18929.50" /><node id="260724361" x="14100.81" y="28777.50" /><node id="275849810" x="15021.63" y="21567.00" /><node id="260724367" x="14102.06" y="28766.50" /><node id="260724366" x="14117.81" y="28768.50" /><node id="288363405" x="24777.50" y="19627.00" /><node id="60324822" x="18154.19" y="30175.50" /><node id="175250281" x="16013.06" y="19145.50" /><node id="175250283" x="16027.56" y="19122.50" /><node id="278887407" x="15491.75" y="19967.50" /><node id="278887404" x="15299.69" y="19943.50" /><node id="28198481" x="29122.31" y="28785.50" /><node id="259223070" x="13684.00" y="28655.00" /><node id="292731332" x="16601.81" y="27727.50" /><node id="292737276" x="16690.38" y="27696.00" /><node id="205494806" x="18438.19" y="24614.50" /><node id="35921646" x="16121.19" y="28434.50" /><node id="274177165" x="18841.75" y="17514.00" /><node id="274177166" x="18826.38" y="17502.50" /><node id="274177167" x="18832.50" y="17519.00" /><node id="274177160" x="18798.75" y="17540.50" /><node id="29181909" x="24438.00" y="31419.00" /><node id="246649196" x="14835.25" y="30843.00" /><node id="205492168" x="19115.94" y="24610.50" /><node id="71448003" x="18737.44" y="28064.50" /><node id="258557596" x="23374.00" y="27534.00" /><node id="61164457" x="18779.50" y="29495.00" /><node id="268311949" x="14499.81" y="26879.50" /><node id="268311948" x="14542.69" y="27000.50" /><node id="284348838" x="16078.13" y="28972.50" /><node id="279206115" x="15099.50" y="31272.50" /><node id="53406902" x="17065.00" y="24508.00" /><node id="278402871" x="16906.00" y="31580.00" /><node id="65139225" x="18205.81" y="28376.50" /><node id="25728854" x="25825.38" y="30989.50" /><node id="296976082" x="20998.50" y="17574.50" /><node id="279205135" x="15252.19" y="31443.50" /><node id="296976084" x="20937.13" y="17624.50" /><node id="74057970" x="15535.63" y="28477.50" /><node id="293273480" x="15689.63" y="27810.00" /><node id="254927758" x="13436.56" y="29880.00" /><node id="301144728" x="20607.19" y="21848.00" /><node id="290444752" x="26085.88" y="31149.50" /><node id="28164020" x="13752.75" y="28811.00" /><node id="254927752" x="13458.69" y="29804.00" /><node id="28164022" x="13852.88" y="28813.50" /><node id="254927754" x="13435.06" y="29830.00" /><node id="69201959" x="26929.63" y="19954.50" /><node id="266998675" x="13909.25" y="30342.00" /><node id="259566587" x="17064.31" y="31907.50" /><node id="359839" x="14342.06" y="26992.50" /><node id="259566585" x="17027.56" y="31794.00" /><node id="359834" x="14203.75" y="26929.00" /><node id="359835" x="14222.56" y="26935.50" /><node id="300112642" x="18556.06" y="31358.50" /><node id="50081241" x="27028.19" y="17806.50" /><node id="300112644" x="18544.19" y="31348.00" /><node id="50081245" x="26593.56" y="18000.50" /><node id="279203692" x="15582.06" y="27922.50" /><node id="279203694" x="15538.31" y="27919.00" /><node id="291220942" x="26134.88" y="16481.00" /><node id="278402873" x="16911.63" y="31599.00" /><node id="67174316" x="30121.69" y="17277.50" /><node id="67174311" x="30075.25" y="17209.50" /><node id="297757952" x="14091.50" y="30119.50" /><node id="278839927" x="20815.56" y="29681.50" /><node id="60341528" x="19702.63" y="28259.00" /><node id="69268520" x="30590.63" y="23534.50" /><node id="278839920" x="20791.56" y="29672.50" /><node id="370492" x="14315.81" y="22768.00" /><node id="29952092" x="25515.69" y="31523.50" /><node id="254439792" x="17655.88" y="18739.50" /><node id="259079233" x="14844.25" y="31346.50" /><node id="60335146" x="18063.00" y="29125.50" /><node id="60335147" x="18074.56" y="29032.50" /><node id="370499" x="15279.13" y="23203.50" /><node id="370498" x="15137.88" y="23101.50" /><node id="60335142" x="18391.13" y="29164.00" /><node id="60335143" x="18377.63" y="29163.00" /><node id="60335140" x="18304.81" y="29162.00" /><node id="259079231" x="14890.00" y="31273.00" /><node id="204981868" x="16450.63" y="25700.00" /><node id="259185135" x="27987.44" y="18415.50" /><node id="286678579" x="19743.88" y="21993.00" /><node id="585651" x="22362.06" y="24233.00" /><node id="188015760" x="17033.69" y="20878.50" /><node id="585657" x="20609.50" y="23885.00" /><node id="275042578" x="18054.00" y="17137.50" /><node id="293207198" x="14608.94" y="26599.50" /><node id="279031170" x="20342.75" y="17572.00" /><node id="29207535" x="24837.13" y="30984.00" /><node id="55052602" x="17195.31" y="29104.50" /><node id="55052600" x="17098.69" y="29091.00" /><node id="255136051" x="13907.50" y="29198.00" /><node id="285968757" x="29766.94" y="24370.50" /><node id="281317882" x="15577.75" y="16041.00" /><node id="81719847" x="22269.00" y="15818.00" /><node id="60948409" x="22245.31" y="30535.50" /><node id="60948408" x="22275.19" y="30505.00" /><node id="288904779" x="22031.13" y="29830.00" /><node id="359346" x="14742.75" y="23685.50" /><node id="274165755" x="18614.19" y="17248.00" /><node id="370275" x="22376.88" y="25241.50" /><node id="274165757" x="18541.00" y="17055.50" /><node id="359343" x="14711.94" y="23743.00" /><node id="370271" x="21626.63" y="25700.50" /><node id="359341" x="14759.06" y="23821.50" /><node id="265941219" x="13660.75" y="25342.50" /><node id="216475545" x="14361.63" y="16808.00" /><node id="267771927" x="17424.44" y="23629.00" /><node id="267854326" x="25944.69" y="26344.50" /><node id="267771928" x="17315.13" y="23636.50" /><node id="95838568" x="19969.94" y="31591.50" /><node id="280525818" x="30132.75" y="24587.00" /><node id="297418633" x="25232.69" y="22117.50" /><node id="246207074" x="19959.56" y="19164.00" /><node id="295996157" x="15058.25" y="29075.50" /><node id="254436918" x="17393.50" y="16625.00" /><node id="295996159" x="15059.38" y="29054.50" /><node id="297418180" x="25211.50" y="23278.00" /><node id="280597250" x="15326.13" y="27485.00" /><node id="87755013" x="16750.38" y="31408.50" /><node id="87755011" x="16784.00" y="31567.00" /><node id="288626151" x="16395.44" y="23563.00" /><node id="300591556" x="20308.63" y="21022.50" /><node id="73991667" x="15509.13" y="27880.00" /><node id="288626156" x="16281.06" y="23408.00" /><node id="288626155" x="16415.06" y="23531.50" /><node id="288626154" x="16368.38" y="23492.00" /><node id="294710574" x="19696.88" y="31461.50" /><node id="294710575" x="19802.63" y="31525.00" /><node id="294710573" x="19546.06" y="31367.00" /><node id="359691" x="13516.19" y="27062.00" /><node id="247439082" x="21562.56" y="15965.00" /><node id="247439083" x="22042.81" y="16252.50" /><node id="242516079" x="14237.69" y="27304.50" /><node id="292428673" x="17246.50" y="18415.50" /><node id="268876121" x="30297.50" y="23583.50" /><node id="95838567" x="19956.13" y="31602.00" /><node id="259528354" x="24469.50" y="20255.50" /><node id="286617116" x="18415.75" y="22721.50" /><node id="204982623" x="16685.81" y="25892.50" /><node id="280952852" x="13808.19" y="30030.50" /><node id="60966811" x="18362.69" y="27909.50" /><node id="60966816" x="18382.81" y="27821.50" /><node id="259528359" x="24493.38" y="20058.00" /><node id="60966815" x="18279.94" y="27879.50" /><node id="302886906" x="31157.94" y="21022.00" /><node id="83715584" x="13949.81" y="29177.50" /><node id="278541678" x="18249.38" y="29770.00" /><node id="275044243" x="17997.06" y="17293.50" /><node id="275044242" x="17950.19" y="17256.00" /><node id="275044247" x="17950.06" y="17289.50" /><node id="278541671" x="18215.56" y="29522.00" /><node id="278541670" x="18072.63" y="29484.50" /><node id="277775341" x="19701.25" y="17333.00" /><node id="278541672" x="18016.63" y="29833.00" /><node id="278541675" x="18118.94" y="29857.50" /><node id="25728874" x="24691.50" y="31681.00" /><node id="25728877" x="25499.31" y="31552.50" /><node id="25728871" x="24817.44" y="31654.00" /><node id="25728870" x="24842.56" y="31596.00" /><node id="25728873" x="24715.69" y="31672.00" /><node id="247784916" x="20493.88" y="14843.00" /><node id="87748045" x="16218.31" y="31186.00" /><node id="25728878" x="25542.13" y="31578.00" /><node id="287105139" x="18885.94" y="23760.50" /><node id="290816295" x="17876.94" y="21442.50" /><node id="28151934" x="15082.81" y="28162.50" /><node id="281079172" x="29888.56" y="24457.50" /><node id="295016968" x="29058.88" y="16516.50" /><node id="296065737" x="25488.06" y="23122.00" /><node id="290816077" x="17869.19" y="23357.50" /><node id="286617133" x="18185.13" y="22997.50" /><node id="286617132" x="18707.88" y="22657.50" /><node id="286617130" x="18640.44" y="22445.00" /><node id="267775555" x="18879.00" y="21911.50" /><node id="286617136" x="18186.25" y="22688.50" /><node id="267775557" x="18785.25" y="22022.00" /><node id="286617134" x="18022.38" y="22787.50" /><node id="173715077" x="15629.44" y="21294.50" /><node id="244443220" x="13502.63" y="24013.00" /><node id="290816054" x="18029.38" y="23225.50" /><node id="290816056" x="18187.00" y="23119.00" /><node id="263252147" x="18203.00" y="31929.50" /><node id="296066427" x="25253.81" y="23258.50" /><node id="305432847" x="23556.81" y="24899.00" /><node id="256948337" x="15990.69" y="27908.50" /><node id="28136610" x="23670.38" y="23455.00" /><node id="28136612" x="23743.00" y="23456.00" /><node id="277758922" x="19816.88" y="17223.50" /><node id="256948339" x="15995.25" y="27940.50" /><node id="69216460" x="30780.38" y="19876.00" /><node id="288819808" x="24639.94" y="23652.50" /><node id="280525627" x="29926.31" y="24599.50" /><node id="308674363" x="24638.81" y="21226.00" /><node id="256944845" x="16919.31" y="27780.00" /><node id="254004636" x="22884.06" y="19348.50" /><node id="246422925" x="15525.63" y="28781.50" /><node id="305419634" x="13440.44" y="26573.00" /><node id="256219320" x="13510.94" y="30990.00" /><node id="263251306" x="18118.88" y="31733.00" /><node id="295205053" x="15579.44" y="25971.50" /><node id="242163242" x="19006.50" y="26421.00" /><node id="258401670" x="20346.38" y="30252.50" /><node id="258401671" x="20396.81" y="30296.00" /><node id="280541026" x="29878.56" y="24629.50" /><node id="258401675" x="20504.75" y="30385.00" /><node id="28900733" x="24721.19" y="29724.00" /><node id="305718243" x="31138.44" y="27935.50" /><node id="28900730" x="24957.50" y="29984.50" /><node id="28900736" x="25404.75" y="29960.50" /><node id="301701006" x="19240.06" y="15301.50" /><node id="303290143" x="14420.13" y="25830.00" /><node id="29384791" x="24916.13" y="31175.00" /><node id="308329591" x="23739.31" y="23018.50" /><node id="300447568" x="21528.75" y="30629.50" /><node id="300447569" x="21823.19" y="30621.50" /><node id="275011667" x="17842.44" y="16721.00" /><node id="474337" x="13992.88" y="30416.00" /><node id="277734389" x="14083.81" y="25230.00" /><node id="474334" x="14120.13" y="30516.50" /><node id="474339" x="13921.44" y="30334.00" /><node id="267772524" x="17415.38" y="23221.50" /><node id="277285031" x="15859.69" y="27093.50" /><node id="277285033" x="15942.13" y="26973.50" /><node id="277285032" x="15840.44" y="26940.50" /><node id="277285035" x="16014.94" y="26985.50" /><node id="277285036" x="16060.06" y="26993.00" /><node id="289497623" x="22468.38" y="30371.50" /><node id="83549009" x="14196.81" y="29600.50" /><node id="289497621" x="22462.13" y="30369.50" /><node id="65155352" x="18190.06" y="28176.50" /><node id="278329347" x="23086.63" y="22067.00" /><node id="258942290" x="23989.44" y="28322.00" /><node id="273758196" x="21870.88" y="23987.50" /><node id="258942292" x="23726.00" y="27998.00" /><node id="258942293" x="23853.38" y="27677.00" /><node id="258942294" x="23965.50" y="27724.00" /><node id="258942295" x="23803.50" y="27806.00" /><node id="258942296" x="23919.63" y="27848.00" /><node id="298168425" x="21587.50" y="31816.00" /><node id="292528931" x="18519.94" y="19336.50" /><node id="292391759" x="19835.13" y="31547.00" /><node id="79732342" x="16166.56" y="30217.50" /><node id="79732340" x="16244.63" y="30204.00" /><node id="298919852" x="14440.06" y="26686.50" /><node id="33541112" x="21190.88" y="28609.50" /><node id="298919850" x="14733.00" y="26635.00" /><node id="79732344" x="16055.00" y="30225.50" /><node id="274140453" x="18769.94" y="17351.00" /><node id="274140450" x="18822.81" y="17329.00" /><node id="274140451" x="18751.50" y="17319.00" /><node id="259565937" x="16979.13" y="31740.00" /><node id="241752764" x="26324.00" y="16323.50" /><node id="283190528" x="23161.50" y="27028.50" /><node id="292392129" x="19793.13" y="31512.50" /><node id="292392127" x="19815.44" y="31505.00" /><node id="299387209" x="13762.31" y="29268.00" /><node id="284308463" x="16370.88" y="28788.50" /><node id="277752564" x="19722.06" y="16842.00" /><node id="277752566" x="19809.88" y="16832.50" /><node id="258395740" x="20163.81" y="30235.00" /><node id="81691352" x="25054.44" y="17117.00" /><node id="81691354" x="24939.31" y="17040.50" /><node id="60279186" x="20109.13" y="28778.00" /><node id="21256354" x="23325.13" y="20298.00" /><node id="35912917" x="16050.94" y="28548.50" /><node id="289974438" x="22656.63" y="27318.50" /><node id="305934870" x="24466.50" y="23418.00" /><node id="50119929" x="24767.63" y="17044.00" /><node id="69298759" x="18168.00" y="21687.50" /><node id="35912918" x="16039.13" y="28599.50" /><node id="274990436" x="18310.56" y="16990.00" /><node id="258395746" x="20038.25" y="30203.50" /><node id="256574073" x="13801.38" y="28811.50" /><node id="52275744" x="24525.13" y="23574.00" /><node id="143417262" x="