<nodes><node id="285968773" x="29823.75" y="24409.00" /><node id="285968778" x="29820.38" y="24419.50" /><node id="295533759" x="24830.31" y="31226.50" /><node id="295533750" x="24800.69" y="31168.00" /><node id="295533752" x="24858.25" y="31170.50" /><node id="295533753" x="24917.19" y="31170.00" /><node id="295533754" x="24808.13" y="31154.00" /><node id="295533755" x="24859.06" y="31156.00" /><node id="295533756" x="24917.50" y="31155.50" /><node id="295533757" x="24858.75" y="31164.00" /><node id="277796983" x="20667.25" y="26690.00" /><node id="277845367" x="20942.13" y="33106.50" /><node id="277845362" x="21141.06" y="32960.50" /><node id="277845369" x="20932.56" y="33194.50" /><node id="277845368" x="21052.75" y="33122.00" /><node id="53404290" x="29756.94" y="20683.50" /><node id="32345573" x="30126.44" y="24482.50" /><node id="290444995" x="28477.75" y="32433.50" /><node id="32345578" x="30292.56" y="24160.00" /><node id="290444998" x="28219.00" y="32319.00" /><node id="60951216" x="19081.75" y="29888.50" /><node id="292391131" x="19980.50" y="31911.50" /><node id="50082761" x="24588.19" y="20878.00" /><node id="50082763" x="24735.63" y="20895.00" /><node id="25721483" x="23620.13" y="32082.00" /><node id="50082765" x="24808.31" y="21199.00" /><node id="25721481" x="23670.25" y="32053.00" /><node id="253996757" x="19989.63" y="27820.00" /><node id="25721489" x="24081.69" y="32390.50" /><node id="25721488" x="24108.69" y="32340.00" /><node id="268451159" x="21772.75" y="24342.00" /><node id="297311506" x="30610.94" y="27046.00" /><node id="259528376" x="24573.50" y="20073.50" /><node id="297418436" x="25939.06" y="22758.00" /><node id="259528374" x="24668.63" y="20413.50" /><node id="259528375" x="24666.38" y="20361.50" /><node id="259528373" x="24794.75" y="20125.50" /><node id="259528370" x="24418.44" y="20493.50" /><node id="259528371" x="24767.50" y="20380.50" /><node id="300893511" x="20959.69" y="21106.50" /><node id="25729100" x="25085.19" y="31793.00" /><node id="25729106" x="26162.38" y="31184.00" /><node id="25729107" x="26152.75" y="31173.50" /><node id="25729104" x="25445.50" y="31726.00" /><node id="171087337" x="19151.50" y="22200.50" /><node id="96144501" x="22330.69" y="22888.50" /><node id="278862697" x="21017.50" y="28716.00" /><node id="278862696" x="20965.06" y="28531.00" /><node id="278862695" x="20865.63" y="28571.00" /><node id="278862694" x="20907.88" y="28691.50" /><node id="278862693" x="21000.00" y="28663.50" /><node id="278862692" x="20874.94" y="28701.50" /><node id="278862691" x="20889.88" y="28762.00" /><node id="278862690" x="20867.88" y="28671.00" /><node id="25728854" x="25825.38" y="30989.50" /><node id="60341528" x="19702.63" y="28259.00" /><node id="60341526" x="19737.25" y="28362.50" /><node id="586377" x="25444.56" y="30691.00" /><node id="586370" x="25080.63" y="30452.00" /><node id="278864697" x="20919.31" y="29065.50" /><node id="279373621" x="24016.81" y="22684.00" /><node id="279373622" x="24089.81" y="22041.00" /><node id="292307086" x="28034.44" y="32619.00" /><node id="280525642" x="29921.94" y="24628.50" /><node id="286309838" x="19842.94" y="22905.00" /><node id="286309836" x="20512.06" y="23207.00" /><node id="286309837" x="19572.31" y="22624.00" /><node id="286309833" x="19991.88" y="22093.00" /><node id="258533871" x="22642.56" y="29380.50" /><node id="258533872" x="22568.94" y="29332.00" /><node id="289226906" x="19088.00" y="22029.00" /><node id="289226901" x="19134.56" y="21978.50" /><node id="283190544" x="22941.13" y="27025.00" /><node id="283190541" x="23093.38" y="27120.00" /><node id="306259563" x="23458.06" y="20728.00" /><node id="288423837" x="21702.13" y="26808.00" /><node id="306259565" x="23247.38" y="20934.50" /><node id="281087082" x="26230.25" y="32587.50" /><node id="300911542" x="23759.19" y="33248.50" /><node id="300911540" x="23766.69" y="33249.00" /><node id="292298041" x="27797.38" y="32732.00" /><node id="292298043" x="27768.19" y="32690.00" /><node id="292298047" x="27908.44" y="32622.00" /><node id="292298046" x="27757.94" y="32723.50" /><node id="293673064" x="19825.75" y="32797.50" /><node id="304146207" x="27443.50" y="26125.50" /><node id="258856739" x="23654.38" y="19724.00" /><node id="292120691" x="21910.19" y="27353.50" /><node id="60945709" x="20402.63" y="28776.50" /><node id="60945708" x="20292.44" y="28747.50" /><node id="308676168" x="24903.75" y="19828.00" /><node id="60945705" x="20260.75" y="29280.50" /><node id="60945704" x="20113.94" y="29227.00" /><node id="285980241" x="29765.88" y="24386.50" /><node id="60945706" x="20224.81" y="29126.00" /><node id="308676163" x="24871.81" y="20142.00" /><node id="60945703" x="20158.00" y="29245.00" /><node id="285980244" x="29790.00" y="24406.50" /><node id="249463070" x="19433.00" y="24531.00" /><node id="308535715" x="19549.25" y="30052.00" /><node id="249463078" x="19446.75" y="24526.50" /><node id="273425550" x="27887.56" y="32676.50" /><node id="278852584" x="22091.31" y="30015.50" /><node id="278852585" x="22159.94" y="29931.50" /><node id="52272154" x="31518.19" y="22020.50" /><node id="278852581" x="22075.81" y="29946.50" /><node id="275558370" x="21039.06" y="25172.00" /><node id="278852588" x="22240.81" y="29878.00" /><node id="29131905" x="23841.69" y="31462.00" /><node id="286735087" x="21995.44" y="33310.50" /><node id="304609522" x="29540.31" y="32294.00" /><node id="29131906" x="23759.56" y="31449.00" /><node id="247488729" x="21161.00" y="23711.00" /><node id="247488725" x="21272.94" y="23279.50" /><node id="247488724" x="21279.44" y="23091.50" /><node id="71448138" x="19139.75" y="28142.50" /><node id="71448134" x="19064.94" y="28143.00" /><node id="585241" x="23758.38" y="23475.50" /><node id="405920" x="29795.13" y="23794.50" /><node id="405921" x="29780.50" y="23785.50" /><node id="405927" x="29203.94" y="24341.00" /><node id="585246" x="23431.31" y="23444.00" /><node id="405928" x="29188.81" y="24328.50" /><node id="278828858" x="20504.63" y="29841.00" /><node id="308675554" x="24157.88" y="20510.00" /><node id="278828856" x="20422.25" y="29816.00" /><node id="25721487" x="23873.38" y="32369.00" /><node id="268451099" x="22047.25" y="24454.50" /><node id="286801807" x="19384.44" y="32996.50" /><node id="25721482" x="23719.19" y="32091.50" /><node id="71649669" x="20679.69" y="26100.50" /><node id="275554913" x="21498.31" y="23733.00" /><node id="307510369" x="22829.13" y="32930.00" /><node id="185718989" x="19485.69" y="20577.00" /><node id="60368955" x="19195.81" y="29581.00" /><node id="60368954" x="19193.75" y="29664.00" /><node id="60368951" x="19053.31" y="29620.00" /><node id="60368950" x="19073.81" y="29559.00" /><node id="28301389" x="22319.44" y="30490.00" /><node id="300880081" x="20420.31" y="21482.00" /><node id="300880087" x="20297.56" y="21556.00" /><node id="300880084" x="20310.25" y="21549.50" /><node id="25997751" x="20740.44" y="30344.50" /><node id="268876128" x="30103.56" y="23674.00" /><node id="279803975" x="25948.31" y="32728.00" /><node id="266348596" x="29569.50" y="24833.00" /><node id="300892436" x="20877.25" y="21323.00" /><node id="290444833" x="28315.00" y="31876.50" /><node id="275557293" x="21768.06" y="24098.50" /><node id="275557292" x="21721.50" y="24189.00" /><node id="268452549" x="22455.19" y="24538.50" /><node id="301141889" x="21289.94" y="22188.00" /><node id="61785214" x="19930.50" y="31144.00" /><node id="308652521" x="19803.38" y="32048.50" /><node id="306259791" x="23255.56" y="20828.50" /><node id="308652528" x="19800.75" y="32059.00" /><node id="258604892" x="24110.13" y="27495.00" /><node id="258604897" x="24028.38" y="27459.50" /><node id="258411596" x="22004.69" y="29892.50" /><node id="258411597" x="22090.13" y="29637.00" /><node id="267887309" x="27002.88" y="32181.50" /><node id="289471069" x="23119.63" y="30366.50" /><node id="292712190" x="19088.50" y="26827.50" /><node id="275208897" x="21736.69" y="22758.50" /><node id="281230137" x="23848.50" y="26653.00" /><node id="275556525" x="21553.44" y="24324.00" /><node id="275556522" x="21423.69" y="24153.50" /><node id="275556523" x="21469.88" y="24193.50" /><node id="258410178" x="21844.50" y="30007.00" /><node id="292100467" x="19679.88" y="33212.00" /><node id="292100466" x="19616.00" y="33226.00" /><node id="60949373" x="20252.75" y="29255.00" /><node id="28198481" x="29122.31" y="28785.50" /><node id="279808335" x="26234.88" y="32557.00" /><node id="29181909" x="24438.00" y="31419.00" /><node id="279808338" x="26279.06" y="32426.00" /><node id="205492168" x="19115.94" y="24610.50" /><node id="258557596" x="23374.00" y="27534.00" /><node id="300617081" x="21143.81" y="21662.50" /><node id="29384837" x="25738.00" y="32567.00" /><node id="301144728" x="20607.19" y="21848.00" /><node id="290444752" x="26085.88" y="31149.50" /><node id="29384839" x="26974.81" y="32806.00" /><node id="69201959" x="26929.63" y="19954.50" /><node id="308675850" x="24411.31" y="20362.50" /><node id="278839927" x="20815.56" y="29681.50" /><node id="69268520" x="30590.63" y="23534.50" /><node id="278839920" x="20791.56" y="29672.50" /><node id="29952092" x="25515.69" y="31523.50" /><node id="69548431" x="20814.25" y="32812.50" /><node id="286678579" x="19743.88" y="21993.00" /><node id="585651" x="22362.06" y="24233.00" /><node id="585657" x="20609.50" y="23885.00" /><node id="585655" x="20697.81" y="23794.00" /><node id="57902505" x="24396.31" y="21078.00" /><node id="285968757" x="29766.94" y="24370.50" /><node id="146662386" x="24768.63" y="32332.50" /><node id="60948409" x="22245.31" y="30535.50" /><node id="60948408" x="22275.19" y="30505.00" /><node id="288904779" x="22031.13" y="29830.00" /><node id="370275" x="22376.88" y="25241.50" /><node id="266394452" x="20081.00" y="31068.00" /><node id="370271" x="21626.63" y="25700.50" /><node id="280525815" x="30179.88" y="24612.00" /><node id="267854326" x="25944.69" y="26344.50" /><node id="280557828" x="21671.75" y="32330.50" /><node id="71566645" x="19485.38" y="27904.50" /><node id="280525818" x="30132.75" y="24587.00" /><node id="297418633" x="25232.69" y="22117.50" /><node id="300591552" x="20326.25" y="20963.00" /><node id="297418636" x="25515.38" y="21607.50" /><node id="297418180" x="25211.50" y="23278.00" /><node id="294710574" x="19696.88" y="31461.50" /><node id="294710575" x="19802.63" y="31525.00" /><node id="294710573" x="19546.06" y="31367.00" /><node id="259528354" x="24469.50" y="20255.50" /><node id="259528359" x="24493.38" y="20058.00" /><node id="29389517" x="26146.75" y="32610.50" /><node id="302886906" x="31157.94" y="21022.00" /><node id="25728874" x="24691.50" y="31681.00" /><node id="25728877" x="25499.31" y="31552.50" /><node id="25728871" x="24817.44" y="31654.00" /><node id="25728870" x="24842.56" y="31596.00" /><node id="25728873" x="24715.69" y="31672.00" /><node id="292414242" x="19524.06" y="33238.50" /><node id="25728878" x="25542.13" y="31578.00" /><node id="281079179" x="29998.13" y="24490.00" /><node id="281079172" x="29888.56" y="24457.50" /><node id="288561163" x="27500.63" y="32490.00" /><node id="288561167" x="27689.06" y="32427.00" /><node id="296065737" x="25488.06" y="23122.00" /><node id="288561168" x="27888.38" y="32421.00" /><node id="293425644" x="19896.56" y="32817.00" /><node id="296066427" x="25253.81" y="23258.50" /><node id="305432847" x="23556.81" y="24899.00" /><node id="292319921" x="20408.00" y="33215.00" /><node id="28136611" x="23742.75" y="23474.50" /><node id="28136610" x="23670.38" y="23455.00" /><node id="28136612" x="23743.00" y="23456.00" /><node id="307730951" x="27733.38" y="25100.50" /><node id="280541028" x="29905.63" y="24858.00" /><node id="288819808" x="24639.94" y="23652.50" /><node id="280525627" x="29926.31" y="24599.50" /><node id="308674363" x="24638.81" y="21226.00" /><node id="258401670" x="20346.38" y="30252.50" /><node id="258401671" x="20396.81" y="30296.00" /><node id="258401675" x="20504.75" y="30385.00" /><node id="28900733" x="24721.19" y="29724.00" /><node id="305718243" x="31138.44" y="27935.50" /><node id="28900730" x="24957.50" y="29984.50" /><node id="28900736" x="25404.75" y="29960.50" /><node id="28900734" x="24965.31" y="29981.50" /><node id="29384795" x="25914.38" y="32656.00" /><node id="29384791" x="24916.13" y="31175.00" /><node id="308329591" x="23739.31" y="23018.50" /><node id="300447568" x="21528.75" y="30629.50" /><node id="300447569" x="21823.19" y="30621.50" /><node id="289497623" x="22468.38" y="30371.50" /><node id="289497621" x="22462.13" y="30369.50" /><node id="292298062" x="27957.50" y="32689.00" /><node id="292298060" x="27969.63" y="32654.00" /><node id="258942290" x="23989.44" y="28322.00" /><node id="258942291" x="23844.81" y="28047.00" /><node id="258942292" x="23726.00" y="27998.00" /><node id="258942293" x="23853.38" y="27677.00" /><node id="258942294" x="23965.50" y="27724.00" /><node id="258942295" x="23803.50" y="27806.00" /><node id="258942296" x="23919.63" y="27848.00" /><node id="277820007" x="19748.63" y="32437.00" /><node id="277820006" x="19598.56" y="32456.50" /><node id="277820004" x="19732.25" y="32487.00" /><node id="277820003" x="19768.75" y="32499.50" /><node id="292391759" x="19835.13" y="31547.00" /><node id="277820008" x="19507.13" y="32389.00" /><node id="283190528" x="23161.50" y="27028.50" /><node id="292392129" x="19793.13" y="31512.50" /><node id="292392127" x="19815.44" y="31505.00" /><node id="258395740" x="20163.81" y="30235.00" /><node id="21256354" x="23325.13" y="20298.00" /><node id="203981362" x="20261.44" y="24773.00" /><node id="305934870" x="24466.50" y="23418.00" /><node id="21622645" x="19686.69" y="20270.50" /><node id="52275744" x="24525.13" y="23574.00" /><node id="258395748" x="20117.88" y="30147.00" /><node id="25731267" x="27429.19" y="31772.00" /><node id="289513830" x="22486.81" y="30273.50" /><node id="585229" x="24564.94" y="23286.50" /><node id="585220" x="24860.44" y="23121.50" /><node id="585221" x="24988.38" y="23046.50" /><node id="203951624" x="22895.06" y="22547.50" /><node id="203951627" x="22897.94" y="22531.50" /><node id="292413578" x="19587.06" y="33246.00" /><node id="81764074" x="27737.75" y="31077.50" /><node id="81764072" x="27783.00" y="30815.00" /><node id="81764078" x="27663.19" y="31326.50" /><node id="307729099" x="27840.75" y="25121.00" /><node id="129620313" x="29774.56" y="33128.00" /><node id="286678324" x="19319.50" y="22748.50" /><node id="289978139" x="22166.31" y="27396.50" /><node id="306260150" x="23247.31" y="20748.00" /><node id="289978134" x="22251.06" y="27365.00" /><node id="50861205" x="29964.75" y="20581.00" /><node id="275554647" x="21304.56" y="23921.50" /><node id="25776459" x="26317.06" y="32647.50" /><node id="25776452" x="26393.00" y="32672.50" /><node id="185714086" x="19124.13" y="20977.50" /><node id="25776456" x="26598.63" y="32373.00" /><node id="275554648" x="21482.38" y="23988.50" /><node id="258541903" x="22306.00" y="30075.50" /><node id="305739438" x="23960.94" y="26127.00" /><node id="279009927" x="25635.38" y="22910.00" /><node id="269721314" x="22644.38" y="24884.00" /><node id="269721313" x="22713.63" y="24923.00" /><node id="278319997" x="23246.94" y="23158.00" /><node id="267851131" x="22483.69" y="24696.00" /><node id="306261354" x="23820.94" y="20460.00" /><node id="25721678" x="19392.94" y="30664.50" /><node id="25721673" x="19158.38" y="30852.50" /><node id="52275103" x="29272.81" y="21980.50" /><node id="53398871" x="28281.81" y="22439.00" /><node id="205490540" x="19075.81" y="24779.50" /><node id="306288994" x="29480.75" y="32420.50" /><node id="53398874" x="28251.44" y="22441.00" /><node id="275558944" x="21169.44" y="24870.00" /><node id="275558945" x="21110.56" y="24885.00" /><node id="275558947" x="20931.13" y="24891.50" /><node id="71567012" x="19771.69" y="27506.50" /><node id="52275249" x="30246.19" y="24139.00" /><node id="52275243" x="30021.75" y="24100.50" /><node id="52275244" x="30020.75" y="24118.50" /><node id="292315843" x="27939.94" y="32859.00" /><node id="292315842" x="28149.19" y="32787.00" /><node id="292315845" x="27985.81" y="32861.50" /><node id="292315847" x="27999.31" y="32822.50" /><node id="292315849" x="27980.19" y="32896.50" /><node id="243980249" x="28393.56" y="31460.00" /><node id="243980248" x="28390.13" y="31479.00" /><node id="243980245" x="27769.31" y="32344.50" /><node id="243980247" x="27670.88" y="31223.50" /><node id="243980246" x="27663.31" y="31242.50" /><node id="270264228" x="22081.44" y="24368.50" /><node id="57899371" x="24030.88" y="20550.50" /><node id="248163027" x="20986.38" y="23946.50" /><node id="300598233" x="20113.19" y="20921.50" /><node id="300598232" x="20136.81" y="20813.50" /><node id="248163029" x="21002.31" y="23971.50" /><node id="248163028" x="21004.44" y="23950.50" /><node id="15241877" x="20604.63" y="21523.50" /><node id="15241873" x="20523.88" y="21342.00" /><node id="15241879" x="20676.38" y="21782.50" /><node id="95830327" x="22799.75" y="23440.00" /><node id="308326185" x="22494.50" y="21259.50" /><node id="258348170" x="19281.00" y="29484.50" /><node id="258348175" x="19709.19" y="29598.00" /><node id="258348174" x="19640.50" y="29571.00" /><node id="258348176" x="19721.50" y="29605.50" /><node id="52274199" x="31516.75" y="22024.50" /><node id="267331954" x="19369.19" y="33147.50" /><node id="267331959" x="19525.56" y="33077.00" /><node id="71653148" x="20404.13" y="26528.00" /><node id="303807449" x="31352.81" y="20575.50" /><node id="60271288" x="19711.50" y="28155.50" /><node id="71653145" x="20394.63" y="26514.50" /><node id="305739722" x="24595.69" y="22953.00" /><node id="29384810" x="26104.06" y="32494.00" /><node id="300891860" x="20824.88" y="21264.00" /><node id="300891867" x="20825.94" y="21091.00" /><node id="50860247" x="29321.38" y="19707.00" /><node id="270263470" x="22874.38" y="23996.00" /><node id="281285599" x="23292.56" y="26952.00" /><node id="292101193" x="19796.13" y="33130.50" /><node id="292101196" x="19802.88" y="33073.00" /><node id="254442450" x="23091.25" y="21409.50" /><node id="254442453" x="23133.00" y="20918.00" /><node id="370470" x="21773.81" y="25819.50" /><node id="372907" x="22252.13" y="27146.50" /><node id="286678517" x="19249.88" y="22292.00" /><node id="69220095" x="26244.75" y="23693.50" /><node id="289513854" x="22631.31" y="30312.00" /><node id="262641699" x="27377.88" y="30271.00" /><node id="60521398" x="20076.75" y="30945.00" /><node id="60521399" x="20075.13" y="30919.00" /><node id="280525838" x="30193.44" y="24586.00" /><node id="280525835" x="30148.75" y="24557.50" /><node id="288904758" x="21981.81" y="29649.50" /><node id="280525832" x="30203.13" y="24556.50" /><node id="71566994" x="19758.56" y="27726.50" /><node id="71566997" x="19760.69" y="27712.00" /><node id="71566624" x="19408.50" y="27926.50" /><node id="71566990" x="19751.69" y="27780.50" /><node id="25998016" x="22629.06" y="26185.00" /><node id="25721440" x="24631.63" y="31951.50" /><node id="205467368" x="20333.31" y="24598.00" /><node id="25998013" x="22632.81" y="25621.00" /><node id="25721445" x="24052.19" y="31489.50" /><node id="53403333" x="28867.50" y="20916.00" /><node id="308329982" x="23802.13" y="22431.00" /><node id="290445052" x="28240.75" y="32498.00" /><node id="306257344" x="23721.81" y="20732.50" /><node id="288849460" x="20879.19" y="28136.50" /><node id="292254833" x="19395.06" y="32310.00" /><node id="288849466" x="20886.56" y="28307.50" /><node id="306257343" x="23780.44" y="20561.00" /><node id="288849465" x="20875.56" y="28234.00" /><node id="307729931" x="27773.31" y="25191.50" /><node id="270126628" x="22938.88" y="24613.50" /><node id="307729935" x="27584.63" y="25230.00" /><node id="29268090" x="22872.44" y="32902.50" /><node id="29268093" x="22530.06" y="32547.50" /><node id="29268095" x="22503.56" y="32465.00" /><node id="266367600" x="23856.31" y="22435.00" /><node id="185712811" x="19313.94" y="20772.50" /><node id="307723054" x="26740.94" y="26112.50" /><node id="288244857" x="25597.56" y="30508.00" /><node id="305731877" x="27500.75" y="28985.00" /><node id="305731876" x="26855.00" y="30184.50" /><node id="298158036" x="19839.19" y="31497.50" /><node id="298158035" x="19826.81" y="31522.00" /><node id="298158039" x="19808.25" y="31511.50" /><node id="298158038" x="19811.56" y="31513.50" /><node id="301107016" x="20038.13" y="21224.50" /><node id="268877288" x="29949.25" y="24195.00" /><node id="304575302" x="22452.75" y="31887.00" /><node id="281233065" x="23688.38" y="26968.00" /><node id="308674345" x="24525.19" y="21244.50" /><node id="29388770" x="24471.81" y="33261.50" /><node id="29388771" x="24563.75" y="32905.50" /><node id="308319935" x="23943.94" y="22174.00" /><node id="307728122" x="28621.69" y="28072.00" /><node id="277821642" x="20381.44" y="32605.00" /><node id="277821643" x="20494.88" y="32660.50" /><node id="277821640" x="20279.88" y="32724.00" /><node id="277821641" x="20346.25" y="32585.00" /><node id="305718260" x="30726.94" y="28325.00" /><node id="285980248" x="29819.81" y="24425.00" /><node id="286953813" x="23271.88" y="20275.50" /><node id="300600692" x="19938.06" y="20881.50" /><node id="300600697" x="20097.63" y="20766.50" /><node id="300600699" x="19979.63" y="20856.50" /><node id="277731342" x="21564.38" y="25704.00" /><node id="285980246" x="29801.94" y="24417.00" /><node id="292298006" x="27554.31" y="32797.50" /><node id="288329674" x="28788.56" y="21201.00" /><node id="288561324" x="27987.50" y="32360.00" /><node id="288561320" x="27981.94" y="32431.50" /><node id="288561322" x="27945.00" y="32431.50" /><node id="288561323" x="27963.88" y="32449.50" /><node id="275558621" x="21031.06" y="24988.00" /><node id="275558623" x="21190.63" y="24968.50" /><node id="275558622" x="21123.56" y="24978.00" /><node id="258856779" x="24522.31" y="19882.50" /><node id="254392232" x="25118.75" y="28777.50" /><node id="285980284" x="29778.25" y="24235.00" /><node id="205462703" x="20370.25" y="24422.50" /><node id="285980288" x="29762.81" y="24223.00" /><node id="300133865" x="21689.13" y="32999.00" /><node id="28095029" x="24461.13" y="26887.00" /><node id="28095026" x="24332.31" y="26641.50" /><node id="281080450" x="29814.50" y="24555.00" /><node id="281080453" x="29910.69" y="24586.00" /><node id="281080452" x="29893.06" y="24579.50" /><node id="281080455" x="29740.50" y="24476.50" /><node id="28095023" x="24124.88" y="26360.50" /><node id="28095020" x="23970.69" y="26126.00" /><node id="262637272" x="23120.69" y="27810.00" /><node id="205478500" x="19195.50" y="24473.00" /><node id="301111731" x="21127.63" y="22501.00" /><node id="301111732" x="21154.94" y="22498.50" /><node id="300133862" x="21589.25" y="32987.50" /><node id="301111736" x="21126.56" y="22520.00" /><node id="288891741" x="22145.44" y="29934.00" /><node id="275216208" x="21088.69" y="23132.00" /><node id="288891744" x="22157.50" y="29747.00" /><node id="288891748" x="22079.44" y="29687.50" /><node id="260954167" x="26119.56" y="32656.00" /><node id="36685318" x="30412.88" y="23809.50" /><node id="585200" x="22793.25" y="23465.00" /><node id="50861195" x="29948.81" y="20307.50" /><node id="81764057" x="27989.44" y="27735.50" /><node id="307731930" x="27947.94" y="25041.00" /><node id="289974445" x="22575.06" y="27315.00" /><node id="286678653" x="20183.69" y="22536.50" /><node id="300452499" x="21657.06" y="31924.50" /><node id="301122655" x="20696.31" y="21367.00" /><node id="301122654" x="20713.94" y="21409.00" /><node id="256572330" x="21107.13" y="23687.50" /><node id="301122656" x="20810.31" y="21314.50" /><node id="301122650" x="21023.88" y="21567.00" /><node id="301122653" x="20720.38" y="21612.00" /><node id="256572335" x="20921.06" y="23774.00" /><node id="28114383" x="25055.94" y="31172.00" /><node id="28114381" x="25067.63" y="31453.50" /><node id="443108" x="19307.25" y="29335.00" /><node id="25776479" x="24639.19" y="31938.00" /><node id="25776476" x="24851.88" y="32439.50" /><node id="278328867" x="23092.94" y="21987.00" /><node id="278328866" x="23096.13" y="21947.50" /><node id="308319448" x="24143.25" y="22315.00" /><node id="278328868" x="23077.06" y="22181.50" /><node id="301123389" x="20351.75" y="21370.50" /><node id="25997937" x="23563.38" y="30440.00" /><node id="25997938" x="23606.94" y="30432.50" /><node id="305702897" x="29665.75" y="31815.50" /><node id="305702896" x="29664.94" y="31745.00" /><node id="305702894" x="29640.38" y="31624.50" /><node id="300597252" x="20079.75" y="20863.00" /><node id="305702898" x="29635.75" y="32066.50" /><node id="290444875" x="28368.81" y="32074.50" /><node id="300797406" x="21176.31" y="31423.50" /><node id="290444879" x="28311.63" y="32031.00" /><node id="268452583" x="22371.94" y="24482.50" /><node id="69218937" x="28337.25" y="22488.50" /><node id="307508378" x="21893.31" y="32957.00" /><node id="307508377" x="21891.06" y="32949.00" /><node id="71567382" x="19845.94" y="27824.00" /><node id="281233493" x="23616.94" y="26944.00" /><node id="299457609" x="19802.56" y="30659.50" /><node id="299457608" x="19796.00" y="30664.50" /><node id="277794351" x="20659.44" y="26632.50" /><node id="277794350" x="20641.44" y="26625.50" /><node id="265081922" x="30887.38" y="28683.50" /><node id="29384692" x="30027.94" y="33296.50" /><node id="53398812" x="29364.69" y="21218.50" /><node id="53398819" x="28950.13" y="21325.50" /><node id="71567039" x="19497.81" y="27816.00" /><node id="293736429" x="24336.81" y="32732.50" /><node id="52275228" x="29631.69" y="23980.50" /><node id="52275227" x="29485.00" y="23750.50" /><node id="289487267" x="23048.56" y="30289.50" /><node id="289487266" x="23030.31" y="30353.00" /><node id="585242" x="23763.56" y="23456.00" /><node id="300579247" x="19867.81" y="20394.00" /><node id="300579246" x="19919.44" y="20422.00" /><node id="300579242" x="19819.81" y="20431.00" /><node id="292744953" x="27265.31" y="23909.50" /><node id="308652567" x="19831.38" y="32103.50" /><node id="281288512" x="22772.88" y="27315.00" /><node id="300579249" x="19872.81" y="20390.00" /><node id="585245" x="23428.94" y="23465.00" /><node id="258411620" x="21940.94" y="29588.00" /><node id="292127043" x="19691.38" y="33163.00" /><node id="29557425" x="19432.75" y="30882.00" /><node id="258400471" x="20469.50" y="30165.50" /><node id="280572079" x="21318.38" y="33111.50" /><node id="300600698" x="20046.00" y="20802.00" /><node id="280572074" x="21142.50" y="33154.50" /><node id="304146524" x="27808.75" y="25903.50" /><node id="306289007" x="29991.31" y="32099.00" /><node id="304146527" x="27595.63" y="25767.00" /><node id="304146522" x="27744.56" y="25700.50" /><node id="280572073" x="21060.75" y="33107.50" /><node id="306259428" x="23457.31" y="20851.50" /><node id="254391934" x="24627.81" y="30319.00" /><node id="281087106" x="25882.38" y="31616.00" /><node id="281087105" x="25893.38" y="31606.50" /><node id="281206549" x="29370.94" y="24222.50" /><node id="305706187" x="22704.81" y="21234.00" /><node id="305721482" x="30218.13" y="29226.00" /><node id="267846980" x="22455.50" y="24577.00" /><node id="267846982" x="22493.19" y="24573.50" /><node id="306260418" x="23422.50" y="21052.50" /><node id="300572276" x="20272.63" y="20780.00" /><node id="300572275" x="20261.75" y="20800.00" /><node id="370456" x="21747.63" y="25802.00" /><node id="370454" x="21613.31" y="26083.00" /><node id="300567187" x="19851.56" y="20471.00" /><node id="300567186" x="19841.81" y="20480.00" /><node id="370459" x="22197.81" y="25350.00" /><node id="301557593" x="21946.00" y="32112.00" /><node id="266628743" x="19306.81" y="32257.50" /><node id="292315835" x="28225.38" y="32897.00" /><node id="71566817" x="19266.75" y="28240.50" /><node id="286678532" x="19437.06" y="22253.50" /><node id="292315830" x="28210.06" y="32896.00" /><node id="258936120" x="19712.50" y="30453.00" /><node id="280557866" x="21611.50" y="32744.50" /><node id="280557864" x="21779.44" y="32776.00" /><node id="280557865" x="21830.94" y="32762.00" /><node id="71566977" x="19728.13" y="27889.00" /><node id="25777400" x="29162.88" y="31707.00" /><node id="278842614" x="21604.94" y="29739.50" /><node id="25777403" x="29307.13" y="31748.50" /><node id="288808846" x="24873.56" y="25342.00" /><node id="292319744" x="20498.38" y="33295.00" /><node id="308314243" x="23999.38" y="22861.00" /><node id="305398499" x="23976.50" y="24904.00" /><node id="25721468" x="23846.19" y="32041.50" /><node id="25721461" x="24004.25" y="32242.00" /><node id="130254788" x="19103.56" y="26776.00" /><node id="25721465" x="23874.13" y="32262.50" /><node id="25721467" x="23828.81" y="32143.00" /><node id="25721466" x="23808.81" y="32254.50" /><node id="303380972" x="25146.69" y="20247.00" /><node id="29385003" x="20555.69" y="32914.50" /><node id="29385002" x="20722.56" y="32971.00" /><node id="29385005" x="20614.94" y="33158.00" /><node id="29385006" x="20544.00" y="33236.50" /><node id="307624960" x="31206.69" y="19789.50" /><node id="270126606" x="23044.75" y="24501.50" /><node id="270126605" x="22969.50" y="24473.50" /><node id="270126603" x="22566.56" y="24406.50" /><node id="84484207" x="27409.25" y="31351.00" /><node id="270126608" x="23082.56" y="24474.50" /><node id="288904766" x="21983.06" y="29652.50" /><node id="288220068" x="24632.06" y="23258.00" /><node id="262637231" x="23424.19" y="27598.00" /><node id="262637232" x="23395.06" y="27660.00" /><node id="52297138" x="24192.88" y="22337.50" /><node id="292414209" x="19607.81" y="33253.00" /><node id="586316" x="21546.81" y="30496.50" /><node id="586315" x="21547.31" y="30480.50" /><node id="277845378" x="21007.38" y="32944.00" /><node id="292413098" x="19630.81" y="33229.00" /><node id="267854726" x="27721.56" y="24376.00" /><node id="305935076" x="26083.81" y="24119.00" /><node id="305935078" x="25836.94" y="24270.50" /><node id="89269817" x="24427.06" y="22063.50