<edges><edge fromnode="63485922" id="8107496#1" nolanes="2" priority="0" shape="15154.500000,28976.500000 15160.250000,28975.000000" speed="8.33" spread="center" tonode="63485920" /><edge fromnode="281288512" id="25789731#1" nolanes="2" priority="0" shape="22772.880000,27315.000000 22766.380000,27333.000000" speed="13.89" spread="center" tonode="281288514" /><edge fromnode="262637275" id="24257773#0" nolanes="2" priority="0" shape="23238.190000,27749.000000 23219.630000,27788.500000" speed="13.89" spread="center" tonode="262637276" /><edge fromnode="29795401" id="4687615" nolanes="2" priority="0" shape="25513.560000,31077.000000 25517.940000,31066.000000" speed="13.89" spread="center" tonode="25728830" /><edge fromnode="25729112" id="8107608#0" nolanes="2" priority="0" shape="26269.750000,31080.000000 26324.880000,31126.500000" speed="13.89" spread="center" tonode="25729125" /><edge fromnode="443934" id="24050875#2" nolanes="3" priority="0" shape="17076.060000,25678.000000 17155.130000,25780.000000" speed="44.44" spread="center" tonode="370516" /><edge fromnode="254656620" id="23516171" nolanes="2" priority="0" shape="16409.000000,28312.500000 16590.440000,28314.500000" speed="13.89" spread="center" tonode="254669385" /><edge fromnode="246207074" id="27388754#0" nolanes="1" priority="0" shape="19959.560000,19164.000000 19975.560000,18917.500000" speed="5.56" spread="center" tonode="300666525" /><edge fromnode="474475" id="4400323#0" nolanes="2" priority="0" shape="13504.880000,28860.000000 13493.690000,28781.500000" speed="27.78" spread="center" tonode="255223799" /><edge fromnode="277285135" id="25443924#1" nolanes="2" priority="0" shape="16028.500000,26352.000000 15855.190000,26582.500000" speed="13.89" spread="center" tonode="277285079" /><edge fromnode="295980091" id="4532226#0" nolanes="2" priority="0" shape="14897.940000,29078.500000 14910.750000,29045.000000" speed="13.89" spread="center" tonode="296000791" /><edge fromnode="301112048" id="27426785" nolanes="1" priority="0" shape="21138.380000,22305.000000 21132.250000,22119.000000" speed="2.78" spread="center" tonode="301112043" /><edge fromnode="213280597" id="22949649#2" nolanes="2" priority="0" shape="13673.060000,27496.000000 13617.560000,27401.000000" speed="27.78" spread="center" tonode="213432887" /><edge fromnode="25704762" id="4498614#0" nolanes="2" priority="0" shape="24983.000000,30788.000000 24983.690000,30669.000000" speed="27.78" spread="center" tonode="25728803" /><edge fromnode="205492168" id="19753445#6" nolanes="2" priority="0" shape="19115.940000,24610.500000 19075.130000,24527.000000" speed="13.89" spread="center" tonode="205478501" /><edge fromnode="256572321" id="23882092#0" nolanes="2" priority="0" shape="24542.690000,20449.500000 24560.380000,20264.000000" speed="13.89" spread="center" tonode="252866895" /><edge fromnode="267927302" id="24648688#0" nolanes="2" priority="0" shape="16814.500000,30191.500000 16746.630000,30175.000000" speed="13.89" spread="center" tonode="267927295" /><edge fromnode="60518107" id="8658355#2" nolanes="1" priority="0" shape="21182.310000,29764.500000 21230.130000,29732.000000" speed="22.22" spread="center" tonode="278842591" /><edge fromnode="274937940" id="24827094#1" nolanes="2" priority="0" shape="21893.810000,24625.500000 21870.440000,24681.000000" speed="13.89" spread="center" tonode="269719535" /><edge fromnode="278853622" id="4395102#10" nolanes="2" priority="0" shape="21907.130000,30096.000000 21816.690000,30121.500000" speed="27.78" spread="center" tonode="288896258" /><edge fromnode="267909919" id="28027422#1" nolanes="2" priority="0" shape="28711.880000,24896.000000 28909.940000,25009.500000" speed="13.89" spread="center" tonode="307733377" /><edge fromnode="254443526" id="9952922#5" nolanes="1" priority="0" shape="25403.810000,16299.500000 25412.560000,16290.500000" speed="22.22" spread="center" tonode="76912853" /><edge fromnode="306257543" id="27893697#10" nolanes="2" priority="0" shape="23768.440000,20744.000000 23785.310000,20746.000000" speed="13.89" spread="center" tonode="306257752" /><edge fromnode="216182953" id="15802591#1" nolanes="2" priority="0" shape="15255.810000,27888.500000 15270.690000,27901.000000" speed="27.78" spread="center" tonode="216179963" /><edge fromnode="304145819" id="27694895" nolanes="2" priority="0" shape="27398.060000,26105.000000 27443.500000,26125.500000" speed="13.89" spread="center" tonode="304146207" /><edge fromnode="306259503" id="27893895" nolanes="2" priority="0" shape="23406.000000,20763.500000 23449.810000,20768.000000" speed="13.89" spread="center" tonode="306259521" /><edge fromnode="275847130" id="25409645#1" nolanes="2" priority="0" shape="14102.130000,21317.000000 14503.130000,21032.500000" speed="13.89" spread="center" tonode="276924216" /><edge fromnode="79737174" id="9871730#2" nolanes="2" priority="0" shape="16327.060000,30478.000000 16344.060000,30488.000000" speed="13.89" spread="center" tonode="79737175" /><edge fromnode="474507" id="4534570#3" nolanes="2" priority="0" shape="15234.940000,28453.500000 15221.940000,28388.500000" speed="27.78" spread="center" tonode="63485942" /><edge fromnode="288608321" id="26342881#0" nolanes="2" priority="0" shape="17004.130000,22652.500000 16973.940000,22702.500000" speed="13.89" spread="center" tonode="288607940" /><edge fromnode="288608137" id="26342869#0" nolanes="2" priority="0" shape="17455.690000,23630.000000 17462.000000,23724.000000" speed="13.89" spread="center" tonode="288608136" /><edge fromnode="281229993" id="25784369" nolanes="2" priority="0" shape="23113.380000,26778.000000 23117.630000,26827.000000" speed="13.89" spread="center" tonode="281229999" /><edge fromnode="586303" id="8876896" nolanes="3" priority="0" shape="20668.750000,30631.500000 20764.630000,30614.500000" speed="27.78" spread="center" tonode="586306" /><edge fromnode="288608133" id="26342868#0" nolanes="2" priority="0" shape="17454.940000,23841.500000 17448.880000,23745.500000" speed="13.89" spread="center" tonode="288608140" /><edge fromnode="160677687" id="8108410#5" nolanes="2" priority="0" shape="13777.310000,29182.000000 13786.560000,29183.000000" speed="13.89" spread="center" tonode="297201365" /><edge fromnode="296049279" id="26658883#4" nolanes="2" priority="0" shape="14818.940000,28995.000000 14811.500000,28983.500000" speed="27.78" spread="center" tonode="295980100" /><edge fromnode="270522820" id="24898206#0" nolanes="2" priority="0" shape="29893.630000,24911.000000 30074.190000,24853.500000" speed="13.89" spread="center" tonode="280533751" /><edge fromnode="28198682" id="27097022#0" nolanes="2" priority="0" shape="30817.690000,27055.500000 30831.130000,26866.000000" speed="13.89" spread="center" tonode="297309341" /><edge fromnode="301097457" id="25440296#6" nolanes="2" priority="0" shape="16714.500000,30937.500000 16663.750000,30800.500000" speed="27.78" spread="center" tonode="442678" /><edge fromnode="15241879" id="27427968#0" nolanes="2" priority="0" shape="20676.380000,21782.500000 20588.940000,21818.000000" speed="13.89" spread="center" tonode="301122312" /><edge fromnode="279536312" id="7316807#1" nolanes="2" priority="0" shape="25523.000000,30551.000000 25668.310000,30696.000000" speed="27.78" spread="center" tonode="25731213" /><edge fromnode="116066063" id="23881720#6" nolanes="2" priority="0" shape="26305.060000,17222.000000 26228.630000,17082.500000" speed="13.89" spread="center" tonode="116065320" /><edge fromnode="33540721" id="5062694" nolanes="1" priority="0" shape="23397.750000,30100.000000 23277.250000,30385.000000" speed="5.56" spread="center" tonode="34085369" /><edge fromnode="251978737" id="23281088" nolanes="2" priority="0" shape="22159.630000,16130.000000 22098.190000,16298.500000" speed="8.33" spread="center" tonode="247893313" /><edge fromnode="373044" id="4242534" nolanes="1" priority="0" shape="21025.500000,27791.500000 20714.810000,28141.000000" speed="22.22" spread="center" tonode="372919" /><edge fromnode="301954383" id="27503774#1" nolanes="2" priority="0" shape="17089.500000,30618.500000 17126.440000,30625.500000" speed="13.89" spread="center" tonode="301954834" /><edge fromnode="254436492" id="23494136" nolanes="2" priority="0" shape="18294.060000,16477.500000 18317.750000,16578.000000" speed="8.33" spread="center" tonode="254436124" /><edge fromnode="50081253" id="8112224" nolanes="1" priority="0" shape="25600.310000,18351.500000 25596.190000,18371.500000" speed="22.22" spread="center" tonode="55496368" /><edge fromnode="262647725" id="24258988" nolanes="2" priority="0" shape="18290.440000,29443.500000 18225.440000,29440.000000" speed="13.89" spread="center" tonode="262647728" /><edge fromnode="57285323" id="7829949#1" nolanes="2" priority="0" shape="17373.380000,29675.000000 17394.690000,29549.500000" speed="13.89" spread="center" tonode="57434000" /><edge fromnode="305690714" id="26359472#4" nolanes="1" priority="0" shape="24080.940000,28328.000000 24080.000000,28155.000000" speed="5.56" spread="center" tonode="288794847" /><edge fromnode="78651666" id="10376833#0" nolanes="2" priority="0" shape="31112.810000,20794.500000 31122.810000,20799.500000" speed="27.78" spread="center" tonode="52271840" /><edge fromnode="290816169" id="26533269#0" nolanes="2" priority="0" shape="17087.190000,23459.500000 17160.940000,23538.000000" speed="13.89" spread="center" tonode="290823416" /><edge fromnode="25718935" id="4536672#1" nolanes="2" priority="0" shape="23464.130000,31013.500000 23523.560000,31249.000000" speed="8.33" spread="center" tonode="25718955" /><edge fromnode="286678628" id="26144283#1" nolanes="2" priority="0" shape="19765.190000,22128.000000 19851.560000,22121.500000" speed="13.89" spread="center" tonode="286309765" /><edge fromnode="73538071" id="4532282#8" nolanes="1" priority="0" shape="16405.190000,31331.000000 16431.500000,31444.500000" speed="22.22" spread="center" tonode="302307684" /><edge fromnode="116071534" id="23881707#1" nolanes="2" priority="0" shape="25932.190000,17301.500000 25959.060000,17335.500000" speed="13.89" spread="center" tonode="116072800" /><edge fromnode="21622655" id="8811182#0" nolanes="2" priority="0" shape="14894.880000,28193.000000 14918.560000,28206.000000" speed="13.89" spread="center" tonode="21622656" /><edge fromnode="277285071" id="25443113#0" nolanes="2" priority="0" shape="15995.250000,26696.500000 15961.130000,26659.500000" speed="13.89" spread="center" tonode="277285075" /><edge fromnode="25728828" id="4687478#0" nolanes="2" priority="0" shape="25402.190000,31238.000000 25480.440000,31284.000000" speed="13.89" spread="center" tonode="25728836" /><edge fromnode="25728896" id="8107623#0" nolanes="2" priority="0" shape="26137.810000,31205.000000 26162.380000,31184.000000" speed="13.89" spread="center" tonode="25729106" /><edge fromnode="36685316" id="5217076#1" nolanes="1" priority="0" shape="30309.500000,23704.000000 30405.130000,23796.500000" speed="22.22" spread="center" tonode="52274234" /><edge fromnode="63446541" id="8804621" nolanes="1" priority="0" shape="24080.380000,18974.500000 24076.880000,18927.500000" speed="22.22" spread="center" tonode="21256343" /><edge fromnode="265731930" id="24449652" nolanes="2" priority="0" shape="15516.560000,25130.000000 15576.190000,25120.500000" speed="13.89" spread="center" tonode="265731925" /><edge fromnode="25729174" id="19801038#2" nolanes="2" priority="0" shape="26710.750000,31514.000000 26777.250000,31378.500000" speed="13.89" spread="center" tonode="206310812" /><edge fromnode="60948250" id="8587921#0" nolanes="2" priority="0" shape="23840.690000,26911.000000 23850.630000,26753.000000" speed="19.44" spread="center" tonode="80201691" /><edge fromnode="256498501" id="8213016" nolanes="2" priority="0" shape="13978.130000,30708.500000 13963.000000,30842.000000" speed="13.89" spread="center" tonode="585626" /><edge fromnode="65077762" id="8590723#5" nolanes="2" priority="0" shape="18329.000000,28153.000000 18345.130000,28006.000000" speed="13.89" spread="center" tonode="256922561" /><edge fromnode="296422590" id="8066386#3" nolanes="2" priority="0" shape="20008.440000,31794.500000 20008.000000,31808.000000" speed="27.78" spread="center" tonode="300799346" /><edge fromnode="300569607" id="27384621" nolanes="2" priority="0" shape="20579.440000,20994.000000 20373.560000,21102.500000" speed="8.33" spread="center" tonode="15241936" /><edge fromnode="29018627" id="14857496#0" nolanes="2" priority="0" shape="15851.810000,18980.500000 15837.690000,18988.500000" speed="27.78" spread="center" tonode="29018628" /><edge fromnode="60271362" id="8061600#2" nolanes="2" priority="0" shape="18549.560000,27183.500000 18566.560000,27365.500000" speed="27.78" spread="center" tonode="61787810" /><edge fromnode="256695409" id="25761188#4" nolanes="2" priority="0" shape="13634.310000,30569.000000 13514.060000,30569.000000" speed="13.89" spread="center" tonode="256694604" /><edge fromnode="60216639" id="8053429#3" nolanes="2" priority="0" shape="18390.060000,28982.000000 18499.750000,28924.000000" speed="13.89" spread="center" tonode="60216641" /><edge fromnode="71649547" id="9410349" nolanes="2" priority="0" shape="21004.000000,25813.500000 20846.380000,25900.000000" speed="13.89" spread="center" tonode="71649577" /><edge fromnode="286678375" id="26179059" nolanes="2" priority="0" shape="18962.380000,22445.000000 19026.940000,22387.000000" speed="13.89" spread="center" tonode="286678382" /><edge fromnode="300889190" id="27408910#1" nolanes="2" priority="0" shape="20623.810000,21224.000000 20640.250000,21251.500000" speed="8.33" spread="center" tonode="300889192" /><edge fromnode="25718956" id="4536672#3" nolanes="2" priority="0" shape="23524.630000,31320.500000 23531.440000,31360.000000" speed="8.33" spread="center" tonode="25718957" /><edge fromnode="60908166" id="8603787#0" nolanes="2" priority="0" shape="18643.130000,30430.500000 18661.560000,30237.500000" speed="27.78" spread="center" tonode="61796887" /><edge fromnode="286309838" id="26144292" nolanes="1" priority="0" shape="19842.940000,22905.000000 20512.060000,23207.000000" speed="5.56" spread="center" tonode="286309836" /><edge fromnode="474482" id="4045163#0" nolanes="2" priority="0" shape="13778.750000,28194.500000 13757.630000,28187.500000" speed="27.78" spread="center" tonode="248152197" /><edge fromnode="278862695" id="25583413#0" nolanes="2" priority="0" shape="20865.630000,28571.000000 20870.940000,28519.000000" speed="13.89" spread="center" tonode="278863229" /><edge fromnode="29018636" id="7768000#0" nolanes="1" priority="0" shape="15572.560000,19346.500000 15548.750000,19510.500000" speed="22.22" spread="center" tonode="205329910" /><edge fromnode="63520644" id="4534570#2" nolanes="2" priority="0" shape="15240.880000,28543.500000 15234.940000,28453.500000" speed="27.78" spread="center" tonode="474507" /><edge fromnode="268311948" id="24684742#0" nolanes="2" priority="0" shape="14542.690000,27000.500000 14499.810000,26879.500000" speed="13.89" spread="center" tonode="268311949" /><edge fromnode="442662" id="4663755#0" nolanes="2" priority="0" shape="16918.060000,31590.000000 16941.880000,31606.500000" speed="27.78" spread="center" tonode="442663" /><edge fromnode="308675700" id="7870189#2" nolanes="2" priority="0" shape="24434.310000,20773.000000 24464.130000,20538.500000" speed="13.89" spread="center" tonode="269219357" /><edge fromnode="87317727" id="27402749#0" nolanes="2" priority="0" shape="14037.130000,28543.000000 14014.810000,28535.000000" speed="27.78" spread="center" tonode="449842" /><edge fromnode="297303733" id="27096575" nolanes="2" priority="0" shape="29507.000000,28665.500000 29525.190000,28736.000000" speed="13.89" spread="center" tonode="297303754" /><edge fromnode="25721346" id="4395078#0" nolanes="2" priority="0" shape="23850.060000,31434.000000 23949.130000,31462.500000" speed="8.33" spread="center" tonode="25721374" /><edge fromnode="300865884" id="27407552" nolanes="2" priority="0" shape="20463.750000,21377.500000 20522.500000,21525.500000" speed="13.89" spread="center" tonode="300865880" /><edge fromnode="443398" id="20895437#1" nolanes="2" priority="0" shape="17261.130000,29995.000000 17541.940000,30057.500000" speed="27.78" spread="center" tonode="443400" /><edge fromnode="25728828" id="4687614#0" nolanes="2" priority="0" shape="25402.190000,31238.000000 25462.880000,31149.000000" speed="13.89" spread="center" tonode="29795386" /><edge fromnode="290741619" id="25488403" nolanes="2" priority="0" shape="13938.810000,25202.500000 14083.810000,25230.000000" speed="13.89" spread="center" tonode="277734389" /><edge fromnode="29271547" id="8436574#1" nolanes="1" priority="0" shape="22440.690000,30961.500000 22355.000000,31240.500000" speed="5.56" spread="center" tonode="29271546" /><edge fromnode="25729172" id="8107664#1" nolanes="1" priority="0" shape="26875.810000,31720.000000 27008.440000,31548.000000" speed="22.22" spread="center" tonode="25729177" /><edge fromnode="308314282" id="28078572" nolanes="2" priority="0" shape="23864.130000,22820.500000 23954.750000,22821.000000" speed="13.89" spread="center" tonode="308314387" /><edge fromnode="25728854" id="8107652#2" nolanes="2" priority="0" shape="25825.380000,30989.500000 25859.380000,30982.500000" speed="27.78" spread="center" tonode="25729121" /><edge fromnode="185700870" id="26654066#3" nolanes="1" priority="0" shape="18257.630000,19316.000000 18179.440000,19239.000000" speed="22.22" spread="center" tonode="292523191" /><edge fromnode="586306" id="8876895" nolanes="3" priority="0" shape="20764.630000,30614.500000 21082.690000,30555.500000" speed="27.78" spread="center" tonode="586310" /><edge fromnode="449712" id="22588143" nolanes="3" priority="0" shape="17851.000000,27335.000000 18097.560000,27179.000000" speed="44.44" spread="center" tonode="242299121" /><edge fromnode="278861101" id="25583528#0" nolanes="2" priority="0" shape="21056.440000,29141.500000 20990.500000,29166.000000" speed="13.89" spread="center" tonode="278864701" /><edge fromnode="143386703" id="8659498#5" nolanes="2" priority="0" shape="17306.940000,31298.500000 17353.750000,31251.000000" speed="27.78" spread="center" tonode="259567297" /><edge fromnode="288317151" id="25585051#3" nolanes="2" priority="0" shape="16376.060000,22869.000000 16351.060000,22897.000000" speed="27.78" spread="center" tonode="288317226" /><edge fromnode="288607967" id="18229359#8" nolanes="2" priority="0" shape="17216.250000,23650.000000 17088.500000,23671.000000" speed="13.89" spread="center" tonode="290816403" /><edge fromnode="263024823" id="24291908#4" nolanes="2" priority="0" shape="16796.000000,27589.500000 16795.750000,27524.000000" speed="13.89" spread="center" tonode="263024824" /><edge fromnode="21866522" id="8112220#2" nolanes="1" priority="0" shape="18334.810000,16953.500000 18317.500000,16976.500000" speed="22.22" spread="center" tonode="21866517" /><edge fromnode="585158" id="8659498#0" nolanes="2" priority="0" shape="17037.690000,31594.000000 17045.310000,31574.000000" speed="27.78" spread="center" tonode="258341908" /><edge fromnode="78651666" id="6623268#0" nolanes="1" priority="0" shape="31112.810000,20794.500000 31084.810000,20653.500000" speed="22.22" spread="center" tonode="303807124" /><edge fromnode="275044207" id="23499929#6" nolanes="2" priority="0" shape="17998.250000,17218.500000 17997.630000,17252.500000" speed="13.89" spread="center" tonode="275044219" /><edge fromnode="300591556" id="8323923#16" nolanes="2" priority="0" shape="20308.630000,21022.500000 20311.630000,21026.000000" speed="27.78" spread="center" tonode="300603799" /><edge fromnode="262637254" id="23856869#2" nolanes="2" priority="0" shape="23201.500000,27734.500000 23158.750000,27715.000000" speed="13.89" spread="center" tonode="262637274" /><edge fromnode="205496041" id="19754132" nolanes="2" priority="0" shape="17620.940000,25412.500000 17308.440000,25730.500000" speed="13.89" spread="center" tonode="205495996" /><edge fromnode="25777396" id="4362060#0" nolanes="1" priority="0" shape="28729.130000,31529.000000 29093.250000,31722.500000" speed="22.22" spread="center" tonode="25777758" /><edge fromnode="203951611" id="19652108#0" nolanes="2" priority="0" shape="22782.750000,22564.500000 22895.060000,22547.500000" speed="13.89" spread="center" tonode="203951624" /><edge fromnode="269219331" id="10432250#2" nolanes="2" priority="0" shape="24527.630000,21218.500000 24525.190000,21244.500000" speed="13.89" spread="center" tonode="308674345" /><edge fromnode="258857350" id="23882093" nolanes="2" priority="0" shape="24731.190000,20015.000000 24581.500000,19995.500000" speed="13.89" spread="center" tonode="258857344" /><edge fromnode="65147662" id="8902421#1" nolanes="1" priority="0" shape="29427.810000,16745.500000 29448.440000,16744.000000" speed="5.56" spread="center" tonode="293162359" /><edge fromnode="304060384" id="27686557#1" nolanes="2" priority="0" shape="17293.500000,30285.500000 17360.130000,30404.500000" speed="13.89" spread="center" tonode="304060385" /><edge fromnode="585605" id="26099284#3" nolanes="2" priority="0" shape="13709.560000,30968.000000 13685.190000,30953.000000" speed="27.78" spread="center" tonode="256481965" /><edge fromnode="288244880" id="26310842" nolanes="1" priority="0" shape="27115.310000,30809.000000 25597.560000,30508.000000" speed="5.56" spread="center" tonode="288244857" /><edge fromnode="273120848" id="25095153" nolanes="2" priority="0" shape="16614.500000,31685.000000 16634.250000,31723.000000" speed="13.89" spread="center" tonode="273120849" /><edge fromnode="274159328" id="25153974" nolanes="2" priority="0" shape="18531.940000,17564.500000 18561.630000,17621.500000" speed="13.89" spread="center" tonode="274159330" /><edge fromnode="244443403" id="24839087#1" nolanes="2" priority="0" shape="14953.880000,25711.000000 14836.500000,25859.000000" speed="13.89" spread="center" tonode="247265911" /><edge fromnode="247895258" id="23611328#1" nolanes="2" priority="0" shape="22501.940000,18120.000000 22484.690000,18219.000000" speed="13.89" spread="center" tonode="255723370" /><edge fromnode="449749" id="5170002#0" nolanes="2" priority="0" shape="15778.250000,28721.000000 15632.250000,28793.000000" speed="27.78" spread="center" tonode="449756" /><edge fromnode="65147192" id="8903169" nolanes="2" priority="0" shape="18067.190000,27943.000000 17969.440000,27998.500000" speed="13.89" spread="center" tonode="65147173" /><edge fromnode="289227003" id="16574368#6" nolanes="2" priority="0" shape="18334.250000,21077.500000 18305.560000,21051.500000" speed="13.89" spread="center" tonode="289227014" /><edge fromnode="292426370" id="23494537#7" nolanes="2" priority="0" shape="17673.440000,18345.000000 17724.060000,18274.500000" speed="8.33" spread="center" tonode="292362749" /><edge fromnode="264858182" id="22887906#3" nolanes="1" priority="0" shape="13473.880000,29583.500000 13475.250000,29576.000000" speed="8.33" spread="center" tonode="246190345" /><edge fromnode="258856739" id="8213072#2" nolanes="2" priority="0" shape="23654.380000,19724.000000 23553.440000,19888.000000" speed="27.78" spread="center" tonode="254443011" /><edge fromnode="266628380" id="24518572" nolanes="2" priority="0" shape="18768.060000,31815.500000 18814.380000,31654.000000" speed="13.89" spread="center" tonode="266628362" /><edge fromnode="256500821" id="4045163#5" nolanes="2" priority="0" shape="13534.560000,28005.500000 13424.380000,27948.000000" speed="27.78" spread="center" tonode="256501595" /><edge fromnode="81695972" id="22542890" nolanes="2" priority="0" shape="25751.190000,17130.000000 25804.130000,17186.000000" speed="27.78" spread="center" tonode="116071536" /><edge fromnode="275554711" id="25298742#0" nolanes="2" priority="0" shape="21345.560000,23836.000000 21505.630000,23917.500000" speed="13.89" spread="center" tonode="275556752" /><edge fromnode="76912856" id="9725912#5" nolanes="2" priority="0" shape="25414.380000,16265.500000 25426.500000,16260.000000" speed="27.78" spread="center" tonode="76912846" /><edge fromnode="55433920" id="7853035" nolanes="2" priority="0" shape="17001.310000,29570.500000 16971.190000,29644.000000" speed="13.89" spread="center" tonode="57564223" /><edge fromnode="278863226" id="25583413#4" nolanes="2" priority="0" shape="20980.250000,28488.500000 20965.060000,28531.000000" speed="13.89" spread="center" tonode="278862696" /><edge fromnode="275341249" id="4531784#1" nolanes="2" priority="0" shape="14185.690000,28573.500000 14665.560000,28638.500000" speed="27.78" spread="center" tonode="449825" /><edge fromnode="60271314" id="8060759" nolanes="2" priority="0" shape="18529.190000,28606.500000 18448.560000,28627.000000" speed="13.89" spread="center" tonode="60271315" /><edge fromnode="173708212" id="16788475" nolanes="1" priority="0" shape="15936.500000,21178.000000 16423.130000,21003.500000" speed="22.22" spread="center" tonode="56557354" /><edge fromnode="304060383" id="27686557#0" nolanes="2" priority="0" shape="17218.000000,30162.000000 17293.500000,30285.500000" speed="13.89" spread="center" tonode="304060384" /><edge fromnode="258544361" id="23856665#1" nolanes="2" priority="0" shape="23020.810000,27870.000000 23027.380000,27769.500000" speed="13.89" spread="center" tonode="262637269" /><edge fromnode="25704690" id="4395100#0" nolanes="2" priority="0" shape="23845.810000,30478.500000 23722.750000,30465.000000" speed="27.78" spread="center" tonode="25704692" /><edge fromnode="262628183" id="24256647" nolanes="2" priority="0" shape="16581.560000,29409.500000 16530.560000,29540.000000" speed="13.89" spread="center" tonode="262628194" /><edge fromnode="292400879" id="26658883#3" nolanes="2" priority="0" shape="14846.060000,29020.000000 14818.940000,28995.000000" speed="27.78" spread="center" tonode="296049279" /><edge fromnode="21256354" id="8112202#0" nolanes="1" priority="0" shape="23325.130000,20298.000000 23300.130000,20282.000000" speed="22.22" spread="center" tonode="21789484" /><edge fromnode="26953943" id="25488395" nolanes="2" priority="0" shape="14278.000000,25631.000000 14018.380000,25575.500000" speed="13.89" spread="center" tonode="26953937" /><edge fromnode="35895454" id="5170486#2" nolanes="2" priority="0" shape="16290.130000,28641.500000 16308.000000,28761.000000" speed="27.78" spread="center" tonode="443156" /><edge fromnode="293716002" id="26777669#0" nolanes="1" priority="0" shape="16846.940000,18612.500000 16883.000000,18585.000000" speed="22.22" spread="center" tonode="293716009" /><edge fromnode="303807085" id="27662433#1" nolanes="1" priority="0" shape="31034.380000,21049.500000 31019.940000,21003.500000" speed="2.78" spread="center" tonode="303807092" /><edge fromnode="288607975" id="18229361#1" nolanes="2" priority="0" shape="17022.130000,23850.000000 16936.750000,23777.000000" speed="13.89" spread="center" tonode="288607897" /><edge fromnode="280076306" id="25688691" nolanes="1" priority="0" shape="14433.500000,31921.500000 14438.130000,31925.500000" speed="22.22" spread="center" tonode="280076421" /><edge fromnode="79734499" id="9871641" nolanes="2" priority="0" shape="16376.940000,30495.500000 16563.880000,30679.500000" speed="13.89" spread="center" tonode="79734503" /><edge fromnode="270521318" id="23945302#1" nolanes="2" priority="0" shape="17472.000000,31368.000000 17493.000000,31434.500000" speed="13.89" spread="center" tonode="259567335" /><edge fromnode="254498035" id="23499943#3" nolanes="2" priority="0" shape="17410.690000,16935.000000 17339.750000,16960.500000" speed="8.33" spread="center" tonode="275018605" /><edge fromnode="150560449" id="15220176#0" nolanes="2" priority="0" shape="16701.310000,21082.500000 16562.880000,21029.000000" speed="27.78" spread="center" tonode="56557353" /><edge fromnode="241752653" id="22530681#11" nolanes="2" priority="0" shape="26496.750000,16526.500000 26461.690000,16476.500000" speed="13.89" spread="center" tonode="241752708" /><edge fromnode="301537106" id="27462366" nolanes="3" priority="0" shape="24042.750000,20658.500000 24085.130000,20341.500000" speed="44.44" spread="center" tonode="301537102" /><edge fromnode="143393752" id="23945295" nolanes="2" priority="0" shape="17551.250000,31286.500000 17456.810000,31317.000000" speed="13.89" spread="center" tonode="259567338" /><edge fromnode="258390574" id="8908027#5" nolanes="2" priority="0" shape="19428.500000,29369.500000 19395.060000,29359.500000" speed="27.78" spread="center" tonode="258346217" /><edge fromnode="300587536" id="27381702#5" nolanes="2" priority="0" shape="20041.940000,20517.500000 20083.940000,20571.500000" speed="8.33" spread="center" tonode="300587538" /><edge fromnode="60366408" id="8068861" nolanes="2" priority="0" shape="19744.750000,29559.000000 19832.500000,29597.000000" speed="13.89" spread="center" tonode="60366520" /><edge fromnode="254497853" id="23499915#3" nolanes="2" priority="0" shape="17851.440000,16760.500000 17726.250000,16801.500000" speed="8.33" spread="center" tonode="254497854" /><edge fromnode="300603811" id="27383386#1" nolanes="2" priority="0" shape="20198.690000,21075.500000 20190.310000,21059.500000" speed="13.89" spread="center" tonode="300603813" /><edge fromnode="248111618" id="23013270#2" nolanes="2" priority="0" shape="14100.500000,27486.500000 14139.940000,27531.500000" speed="13.89" spread="center" tonode="248111619" /><edge fromnode="116076231" id="22392565" nolanes="2" priority="0" shape="25531.810000,17950.500000 25711.000000,17883.500000" speed="13.89" spread="center" tonode="240746003" /><edge fromnode="50109622" id="6079068" nolanes="1" priority="0" shape="30465.310000,15707.500000 30674.250000,17031.000000" speed="5.56" spread="center" tonode="50109643" /><edge fromnode="205324483" id="19746060#0" nolanes="1" priority="0" shape="14114.690000,20477.500000 14037.810000,20167.500000" speed="22.22" spread="center" tonode="205342335" /><edge fromnode="55496369" id="8112229" nolanes="2" priority="0" shape="25597.630000,18377.00000