<edges><edge fromnode="25721411" id="4607120" nolanes="2" priority="0" shape="24105.810000,31794.000000 24290.940000,31905.000000" speed="8.33" spread="center" tonode="25721413" /><edge fromnode="269721089" id="24827190#0" nolanes="2" priority="0" shape="23001.630000,24715.500000 22747.250000,24703.000000" speed="13.89" spread="center" tonode="283562956" /><edge fromnode="281389459" id="25921638#0" nolanes="2" priority="0" shape="26916.190000,32335.500000 26911.810000,32324.000000" speed="8.33" spread="center" tonode="281389460" /><edge fromnode="270522847" id="8023493#8" nolanes="2" priority="0" shape="29842.940000,24928.000000 29619.500000,24828.500000" speed="27.78" spread="center" tonode="28198591" /><edge fromnode="270126606" id="25487024#2" nolanes="2" priority="0" shape="23044.750000,24501.500000 23058.380000,24650.000000" speed="13.89" spread="center" tonode="270126610" /><edge fromnode="25731329" id="8107631#1" nolanes="2" priority="0" shape="28063.440000,32234.000000 28015.250000,32220.000000" speed="13.89" spread="center" tonode="288561352" /><edge fromnode="262637275" id="24257773#0" nolanes="2" priority="0" shape="23238.190000,27749.000000 23219.630000,27788.500000" speed="13.89" spread="center" tonode="262637276" /><edge fromnode="259528354" id="23352816#1" nolanes="2" priority="0" shape="24469.500000,20255.500000 24560.380000,20264.000000" speed="13.89" spread="center" tonode="252866895" /><edge fromnode="25729112" id="8107608#0" nolanes="2" priority="0" shape="26269.750000,31080.000000 26324.880000,31126.500000" speed="13.89" spread="center" tonode="25729125" /><edge fromnode="60354762" id="8068094" nolanes="2" priority="0" shape="20409.940000,28489.500000 20442.310000,28518.000000" speed="13.89" spread="center" tonode="60354763" /><edge fromnode="292322597" id="26773228" nolanes="2" priority="0" shape="19932.250000,32938.500000 19962.190000,32844.500000" speed="13.89" spread="center" tonode="293667820" /><edge fromnode="29384989" id="7981450#0" nolanes="2" priority="0" shape="22754.310000,32975.000000 22740.000000,33093.500000" speed="8.33" spread="center" tonode="279105126" /><edge fromnode="300584310" id="27381702#2" nolanes="2" priority="0" shape="19945.940000,20449.500000 19949.500000,20448.000000" speed="8.33" spread="center" tonode="300584298" /><edge fromnode="278828858" id="25579965#2" nolanes="2" priority="0" shape="20504.630000,29841.000000 20527.130000,29766.500000" speed="13.89" spread="center" tonode="278828885" /><edge fromnode="289962910" id="26459167#0" nolanes="1" priority="0" shape="29078.500000,28953.000000 28023.190000,29019.000000" speed="5.56" spread="center" tonode="81764063" /><edge fromnode="29557022" id="4936009#0" nolanes="2" priority="0" shape="23768.310000,32078.500000 23765.560000,32094.000000" speed="13.89" spread="center" tonode="29557027" /><edge fromnode="205477206" id="19753260#0" nolanes="2" priority="0" shape="19611.000000,24574.500000 19639.940000,24500.000000" speed="13.89" spread="center" tonode="205477207" /><edge fromnode="301112048" id="27426785" nolanes="1" priority="0" shape="21138.380000,22305.000000 21132.250000,22119.000000" speed="2.78" spread="center" tonode="301112043" /><edge fromnode="281206539" id="25781826" nolanes="2" priority="0" shape="29633.750000,23990.500000 29717.560000,24007.500000" speed="13.89" spread="center" tonode="281206540" /><edge fromnode="71649583" id="9410347#0" nolanes="2" priority="0" shape="20511.880000,25891.500000 20587.310000,25976.500000" speed="13.89" spread="center" tonode="243289430" /><edge fromnode="25721353" id="4425378#2" nolanes="2" priority="0" shape="24011.500000,31337.000000 24060.380000,31342.000000" speed="8.33" spread="center" tonode="25721368" /><edge fromnode="28095080" id="8880963#1" nolanes="3" priority="0" shape="24101.440000,26887.000000 23837.560000,26971.500000" speed="44.44" spread="center" tonode="299818712" /><edge fromnode="273425543" id="8107672#1" nolanes="2" priority="0" shape="28069.810000,32453.500000 28062.380000,32458.000000" speed="8.33" spread="center" tonode="292307101" /><edge fromnode="25704762" id="4498614#0" nolanes="2" priority="0" shape="24983.000000,30788.000000 24983.690000,30669.000000" speed="27.78" spread="center" tonode="25728803" /><edge fromnode="262295324" id="26310953#5" nolanes="1" priority="0" shape="26097.560000,27901.000000 26151.310000,27421.500000" speed="5.56" spread="center" tonode="267854374" /><edge fromnode="273425539" id="26500577" nolanes="2" priority="0" shape="28100.500000,32469.000000 28120.380000,32491.500000" speed="13.89" spread="center" tonode="273425538" /><edge fromnode="60508808" id="8081463#5" nolanes="1" priority="0" shape="20049.130000,29942.000000 19712.940000,30406.500000" speed="22.22" spread="center" tonode="60509580" /><edge fromnode="205492168" id="19753445#6" nolanes="2" priority="0" shape="19115.940000,24610.500000 19075.130000,24527.000000" speed="13.89" spread="center" tonode="205478501" /><edge fromnode="256572321" id="23882092#0" nolanes="2" priority="0" shape="24542.690000,20449.500000 24560.380000,20264.000000" speed="13.89" spread="center" tonode="252866895" /><edge fromnode="60945703" id="8585793" nolanes="2" priority="0" shape="20158.000000,29245.000000 20113.940000,29227.000000" speed="13.89" spread="center" tonode="60945704" /><edge fromnode="275558271" id="25298979#0" nolanes="2" priority="0" shape="21130.500000,25072.000000 21123.560000,24978.000000" speed="13.89" spread="center" tonode="275558622" /><edge fromnode="60518107" id="8658355#2" nolanes="1" priority="0" shape="21182.310000,29764.500000 21230.130000,29732.000000" speed="22.22" spread="center" tonode="278842591" /><edge fromnode="300133864" id="27340377" nolanes="2" priority="0" shape="21591.250000,32996.000000 21589.250000,32987.500000" speed="13.89" spread="center" tonode="300133862" /><edge fromnode="274937940" id="24827094#1" nolanes="2" priority="0" shape="21893.810000,24625.500000 21870.440000,24681.000000" speed="13.89" spread="center" tonode="269719535" /><edge fromnode="278853622" id="4395102#10" nolanes="2" priority="0" shape="21907.130000,30096.000000 21816.690000,30121.500000" speed="27.78" spread="center" tonode="288896258" /><edge fromnode="267909919" id="28027422#1" nolanes="2" priority="0" shape="28711.880000,24896.000000 28909.940000,25009.500000" speed="13.89" spread="center" tonode="307733377" /><edge fromnode="306257543" id="27893697#10" nolanes="2" priority="0" shape="23768.440000,20744.000000 23785.310000,20746.000000" speed="13.89" spread="center" tonode="306257752" /><edge fromnode="277845411" id="25499761#1" nolanes="2" priority="0" shape="20335.190000,32871.500000 20403.380000,32750.500000" speed="13.89" spread="center" tonode="277845416" /><edge fromnode="25776498" id="5094182#1" nolanes="2" priority="0" shape="24921.560000,32329.000000 24952.880000,32365.000000" speed="13.89" spread="center" tonode="34960126" /><edge fromnode="288567789" id="10059378#2" nolanes="2" priority="0" shape="27246.940000,32005.000000 27278.630000,32117.000000" speed="13.89" spread="center" tonode="25731315" /><edge fromnode="278863741" id="25583445#0" nolanes="2" priority="0" shape="20724.880000,28362.500000 20693.940000,28374.000000" speed="13.89" spread="center" tonode="278863744" /><edge fromnode="25721498" id="4935991#0" nolanes="1" priority="0" shape="24201.630000,32290.500000 24307.690000,32342.500000" speed="22.22" spread="center" tonode="25721500" /><edge fromnode="288885949" id="26367909" nolanes="1" priority="0" shape="21752.000000,28846.000000 21993.560000,29566.500000" speed="5.56" spread="center" tonode="288885927" /><edge fromnode="280542053" id="25727775#1" nolanes="2" priority="0" shape="29830.630000,24794.500000 29755.560000,24593.000000" speed="13.89" spread="center" tonode="280541021" /><edge fromnode="271359550" id="24972302#0" nolanes="2" priority="0" shape="20915.500000,26368.500000 20981.310000,26270.500000" speed="13.89" spread="center" tonode="271359551" /><edge fromnode="301122279" id="27427956#0" nolanes="2" priority="0" shape="21134.560000,22040.000000 21034.560000,22037.000000" speed="13.89" spread="center" tonode="301112752" /><edge fromnode="307687363" id="28021000" nolanes="2" priority="0" shape="27742.380000,25597.000000 27751.250000,25579.500000" speed="13.89" spread="center" tonode="307687050" /><edge fromnode="69501159" id="9265754#3" nolanes="2" priority="0" shape="20547.690000,32592.000000 20590.880000,32546.000000" speed="13.89" spread="center" tonode="286806449" /><edge fromnode="304146335" id="27694914" nolanes="2" priority="0" shape="27135.380000,26109.500000 27068.440000,26157.500000" speed="13.89" spread="center" tonode="304146348" /><edge fromnode="296461262" id="9266571#3" nolanes="2" priority="0" shape="20831.000000,32262.000000 20798.190000,32240.000000" speed="13.89" spread="center" tonode="69479076" /><edge fromnode="275557603" id="9410557#5" nolanes="2" priority="0" shape="20694.750000,25334.000000 20559.630000,25160.500000" speed="13.89" spread="center" tonode="71677155" /><edge fromnode="300558448" id="27379333#1" nolanes="2" priority="0" shape="19613.500000,20330.000000 19602.810000,20293.000000" speed="13.89" spread="center" tonode="300558449" /><edge fromnode="275554648" id="25298736#1" nolanes="2" priority="0" shape="21482.380000,23988.500000 21768.060000,24098.500000" speed="13.89" spread="center" tonode="275557293" /><edge fromnode="60322964" id="8066488#1" nolanes="2" priority="0" shape="20690.060000,31546.000000 20675.750000,31584.000000" speed="27.78" spread="center" tonode="60722531" /><edge fromnode="586303" id="8876896" nolanes="3" priority="0" shape="20668.750000,30631.500000 20764.630000,30614.500000" speed="27.78" spread="center" tonode="586306" /><edge fromnode="282760179" id="25771617#0" nolanes="2" priority="0" shape="26024.440000,33073.000000 26096.130000,32934.000000" speed="13.89" spread="center" tonode="201815742" /><edge fromnode="279465043" id="4729189#3" nolanes="1" priority="0" shape="21841.380000,33292.500000 21797.500000,33294.500000" speed="22.22" spread="center" tonode="280572060" /><edge fromnode="25731206" id="8877352#1" nolanes="1" priority="0" shape="25754.440000,30812.500000 25769.690000,30806.000000" speed="22.22" spread="center" tonode="586387" /><edge fromnode="60518107" id="8081624" nolanes="2" priority="0" shape="21182.310000,29764.500000 21140.690000,29707.500000" speed="27.78" spread="center" tonode="60518423" /><edge fromnode="270522820" id="24898206#0" nolanes="2" priority="0" shape="29893.630000,24911.000000 30074.190000,24853.500000" speed="13.89" spread="center" tonode="280533751" /><edge fromnode="25721434" id="4398400#3" nolanes="2" priority="0" shape="24530.500000,31905.000000 24631.630000,31951.500000" speed="8.33" spread="center" tonode="25721440" /><edge fromnode="71653145" id="9406028#2" nolanes="2" priority="0" shape="20394.630000,26514.500000 20679.690000,26100.500000" speed="13.89" spread="center" tonode="71649669" /><edge fromnode="289471069" id="4395102#1" nolanes="2" priority="0" shape="23119.630000,30366.500000 23030.310000,30353.000000" speed="27.78" spread="center" tonode="289487266" /><edge fromnode="282760230" id="25921632#0" nolanes="2" priority="0" shape="26795.000000,32766.500000 26803.810000,32693.000000" speed="8.33" spread="center" tonode="282760231" /><edge fromnode="69472788" id="25729280#0" nolanes="2" priority="0" shape="21504.750000,32725.500000 21611.500000,32744.500000" speed="13.89" spread="center" tonode="280557866" /><edge fromnode="15241879" id="27427968#0" nolanes="2" priority="0" shape="20676.380000,21782.500000 20588.940000,21818.000000" speed="13.89" spread="center" tonode="301122312" /><edge fromnode="275558945" id="25298979#2" nolanes="2" priority="0" shape="21110.560000,24885.000000 21086.250000,24795.000000" speed="13.89" spread="center" tonode="275559144" /><edge fromnode="279536312" id="7316807#1" nolanes="2" priority="0" shape="25523.000000,30551.000000 25668.310000,30696.000000" speed="27.78" spread="center" tonode="25731213" /><edge fromnode="262637269" id="24257771#0" nolanes="2" priority="0" shape="23027.380000,27769.500000 23120.690000,27810.000000" speed="13.89" spread="center" tonode="262637272" /><edge fromnode="270127524" id="27938272#12" nolanes="2" priority="0" shape="22551.060000,24128.500000 22538.940000,24301.500000" speed="27.78" spread="center" tonode="585190" /><edge fromnode="33540721" id="5062694" nolanes="1" priority="0" shape="23397.750000,30100.000000 23277.250000,30385.000000" speed="5.56" spread="center" tonode="34085369" /><edge fromnode="34033644" id="26500579#0" nolanes="2" priority="0" shape="27814.940000,32801.500000 27811.560000,32801.000000" speed="13.89" spread="center" tonode="292307128" /><edge fromnode="273764126" id="25130314#1" nolanes="2" priority="0" shape="21978.940000,23088.500000 21832.880000,23098.000000" speed="13.89" spread="center" tonode="273758905" /><edge fromnode="290445052" id="26499843#1" nolanes="2" priority="0" shape="28240.750000,32498.000000 28309.630000,32498.500000" speed="8.33" spread="center" tonode="290445061" /><edge fromnode="373044" id="4242534" nolanes="1" priority="0" shape="21025.500000,27791.500000 20714.810000,28141.000000" speed="22.22" spread="center" tonode="372919" /><edge fromnode="585639" id="22974503" nolanes="1" priority="0" shape="21485.500000,23893.500000 21184.060000,23720.000000" speed="22.22" spread="center" tonode="247652220" /><edge fromnode="278632950" id="19657368#1" nolanes="2" priority="0" shape="19319.750000,24912.500000 19599.380000,24577.500000" speed="13.89" spread="center" tonode="203986826" /><edge fromnode="29557027" id="4936010" nolanes="2" priority="0" shape="23765.560000,32094.000000 23736.690000,32093.500000" speed="13.89" spread="center" tonode="29557026" /><edge fromnode="25721424" id="4395072" nolanes="2" priority="0" shape="23713.750000,31730.500000 23618.380000,31656.500000" speed="13.89" spread="center" tonode="25721548" /><edge fromnode="304145819" id="27694895" nolanes="2" priority="0" shape="27398.060000,26105.000000 27443.500000,26125.500000" speed="13.89" spread="center" tonode="304146207" /><edge fromnode="300603799" id="27383386#0" nolanes="2" priority="0" shape="20311.630000,21026.000000 20198.690000,21075.500000" speed="13.89" spread="center" tonode="300603811" /><edge fromnode="273425548" id="26648779#0" nolanes="2" priority="0" shape="27694.440000,32709.500000 27757.940000,32723.500000" speed="13.89" spread="center" tonode="292298046" /><edge fromnode="305690714" id="26359472#4" nolanes="1" priority="0" shape="24080.940000,28328.000000 24080.000000,28155.000000" speed="5.56" spread="center" tonode="288794847" /><edge fromnode="248574496" id="23040814" nolanes="3" priority="0" shape="20233.060000,30726.500000 20175.630000,30737.000000" speed="22.22" spread="center" tonode="585311" /><edge fromnode="299457609" id="23889339#1" nolanes="2" priority="0" shape="19802.560000,30659.500000 19874.500000,30648.500000" speed="13.89" spread="center" tonode="308530162" /><edge fromnode="78651666" id="10376833#0" nolanes="2" priority="0" shape="31112.810000,20794.500000 31122.810000,20799.500000" speed="27.78" spread="center" tonode="52271840" /><edge fromnode="300600692" id="8279718#13" nolanes="2" priority="0" shape="19938.060000,20881.500000 19900.940000,20834.000000" speed="27.78" spread="center" tonode="253975415" /><edge fromnode="25729135" id="7316768#1" nolanes="2" priority="0" shape="26161.000000,31513.000000 26275.380000,31347.500000" speed="13.89" spread="center" tonode="25729139" /><edge fromnode="296471483" id="27045064#4" nolanes="2" priority="0" shape="20884.560000,31943.500000 20912.630000,31894.000000" speed="13.89" spread="center" tonode="296471486" /><edge fromnode="286678628" id="26144283#1" nolanes="2" priority="0" shape="19765.190000,22128.000000 19851.560000,22121.500000" speed="13.89" spread="center" tonode="286309765" /><edge fromnode="266350561" id="24494749#1" nolanes="1" priority="0" shape="26864.310000,24520.000000 26995.690000,23980.500000" speed="5.56" spread="center" tonode="266350569" /><edge fromnode="277845372" id="25499748#0" nolanes="2" priority="0" shape="20805.440000,33003.500000 20844.690000,32938.500000" speed="13.89" spread="center" tonode="277845382" /><edge fromnode="29384577" id="8107292" nolanes="2" priority="0" shape="29667.630000,32783.500000 29608.630000,32809.000000" speed="13.89" spread="center" tonode="29384574" /><edge fromnode="370301" id="4242523" nolanes="2" priority="0" shape="22244.940000,25373.500000 21627.630000,25733.500000" speed="22.22" spread="center" tonode="370305" /><edge fromnode="71567065" id="9400859#0" nolanes="2" priority="0" shape="19506.630000,27574.500000 19542.690000,27570.000000" speed="13.89" spread="center" tonode="71567059" /><edge fromnode="50082761" id="23912591#0" nolanes="2" priority="0" shape="24588.190000,20878.000000 24416.940000,20859.000000" speed="13.89" spread="center" tonode="259187592" /><edge fromnode="25721440" id="4366624#0" nolanes="2" priority="0" shape="24631.630000,31951.500000 24639.190000,31938.000000" speed="27.78" spread="center" tonode="25776479" /><edge fromnode="275557803" id="25298947#0" nolanes="2" priority="0" shape="21010.690000,25599.500000 21104.810000,25481.500000" speed="13.89" spread="center" tonode="275559328" /><edge fromnode="25728896" id="8107623#0" nolanes="2" priority="0" shape="26137.810000,31205.000000 26162.380000,31184.000000" speed="13.89" spread="center" tonode="25729106" /><edge fromnode="286718230" id="26183172#1" nolanes="2" priority="0" shape="19180.250000,21865.500000 19085.380000,21928.500000" speed="13.89" spread="center" tonode="289227054" /><edge fromnode="36685316" id="5217076#1" nolanes="1" priority="0" shape="30309.500000,23704.000000 30405.130000,23796.500000" speed="22.22" spread="center" tonode="52274234" /><edge fromnode="288567658" id="26339058#0" nolanes="2" priority="0" shape="27406.130000,32122.000000 27343.440000,32125.000000" speed="8.33" spread="center" tonode="288567744" /><edge fromnode="288561167" id="22740539#5" nolanes="2" priority="0" shape="27689.060000,32427.000000 27769.310000,32344.500000" speed="13.89" spread="center" tonode="243980245" /><edge fromnode="25729174" id="19801038#2" nolanes="2" priority="0" shape="26710.750000,31514.000000 26777.250000,31378.500000" speed="13.89" spread="center" tonode="206310812" /><edge fromnode="60948250" id="8587921#0" nolanes="2" priority="0" shape="23840.690000,26911.000000 23850.630000,26753.000000" speed="19.44" spread="center" tonode="80201691" /><edge fromnode="286747679" id="27289654#1" nolanes="2" priority="0" shape="20121.130000,32371.500000 20113.500000,32380.000000" speed="13.89" spread="center" tonode="29183026" /><edge fromnode="308530161" id="28092582" nolanes="1" priority="0" shape="19955.810000,30638.500000 19958.500000,30644.000000" speed="2.78" spread="center" tonode="258936190" /><edge fromnode="302922090" id="28078843" nolanes="2" priority="0" shape="24505.000000,22445.000000 24530.560000,22461.000000" speed="13.89" spread="center" tonode="308318258" /><edge fromnode="279044381" id="25599751#1" nolanes="2" priority="0" shape="23285.690000,26892.000000 23286.560000,26910.500000" speed="13.89" spread="center" tonode="281282718" /><edge fromnode="28095033" id="25662447" nolanes="2" priority="0" shape="23906.310000,26375.500000 23970.690000,26126.000000" speed="13.89" spread="center" tonode="28095020" /><edge fromnode="25721468" id="4936008#0" nolanes="2" priority="0" shape="23846.190000,32041.500000 23768.310000,32078.500000" speed="13.89" spread="center" tonode="29557022" /><edge fromnode="25721376" id="4398410#0" nolanes="2" priority="0" shape="24152.250000,31513.000000 24150.690000,31519.500000" speed="8.33" spread="center" tonode="26857750" /><edge fromnode="267024848" id="26649610#5" nolanes="1" priority="0" shape="19792.000000,32894.500000 19747.940000,32883.000000" speed="22.22" spread="center" tonode="293413556" /><edge fromnode="288794813" id="26359476" nolanes="1" priority="0" shape="25692.560000,27039.000000 25635.940000,27344.000000" speed="5.56" spread="center" tonode="288794934" /><edge fromnode="281206595" id="25781831#2" nolanes="2" priority="0" shape="29466.500000,24268.500000 29518.310000,24335.000000" speed="13.89" spread="center" tonode="281206590" /><edge fromnode="302886913" id="27584107#5" nolanes="1" priority="0" shape="31155.810000,21134.000000 31145.500000,21141.500000" speed="2.78" spread="center" tonode="302886915" /><edge fromnode="305702899" id="27896494" nolanes="1" priority="0" shape="29644.500000,32057.500000 29991.310000,32099.000000" speed="22.22" spread="center" tonode="306289007" /><edge fromnode="96147108" id="10817720#4" nolanes="2" priority="0" shape="22297.560000,23812.500000 22055.190000,23708.000000" speed="13.89" spread="center" tonode="96149611" /><edge fromnode="281233485" id="25784923" nolanes="2" priority="0" shape="23546.690000,26948.000000 23616.940000,26944.000000" speed="13.89" spread="center" tonode="281233493" /><edge fromnode="585220" id="26494503#1" nolanes="2" priority="0" shape="24860.440000,23121.500000 24988.380000,23046.500000" speed="27.78" spread="center" tonode="585221" /><edge fromnode="29384692" id="27844673#3" nolanes="1" priority="0" shape="30027.940000,33296.500000 30008.810000,33298.500000" speed="22.22" spread="center" tonode="29384694" /><edge fromnode="69223635" id="9246078#2" nolanes="1" priority="0" shape="25431.690000,24947.000000 25401.750000,24893.500000" speed="5.56" spread="center" tonode="292743809" /><edge fromnode="308674068" id="24775442#2" nolanes="2" priority="0" shape="24529.880000,21738.000000 24521.560000,21843.500000" speed="11.11" spread="center" tonode="269219350" /><edge fromnode="25721409" id="4398400#0" nolanes="2" priority="0" shape="24238.560000,31713.500000 24327.310000,31803.000000" speed="8.33" spread="center" tonode="25721414" /><edge fromnode="586384" id="8877354" nolanes="3" priority="0" shape="25804.690000,30774.000000 26073.690000,30795.000000" speed="44.44" spread="center" tonode="25731203" /><edge fromnode="71649547" id="9410349" nolanes="2" priority="0" shape="21004.000000,25813.500000 20846.380000,25900.000000" speed="13.89" spread="center" tonode="71649577" /><edge fromnode="205481353" id="19753445#5" nolanes="2" priority="0" shape="19148.880000,24683.500000 19115.940000,24610.500000" speed="13.89" spread="center" tonode="205492168" /><edge fromnode="300128207" id="27339801" nolanes="1" priority="0" shape="19500.940000,32241.000000 19511.000000,32252.500000" speed="22.22" spread="center" tonode="300129095" /><edge fromnode="277820003" id="25496384#0" nolanes="2" priority="0" shape="19768.750000,32499.500000 19732.250000,32487.000000" speed="13.89" spread="center" tonode="277820004" /><edge fromnode="300889190" id="27408910#1" nolanes="2" priority="0" shape="20623.810000,21224.000000 20640.250000,21251.500000" speed="8.33" spread="center" tonode="300889192" /><edge fromnode="54665939" id="7316856" nolanes="2" priority="0" shape="26633.940000,31818.500000 26548.940000,31737.500000" speed="13.89" spread="center" tonode="54665932" /><edge fromnode="29207485" id="4611549" nolanes="2" priority="0" shape="24210.560000,31323.500000 24208.060000,31337.500000" speed="13.89" spread="center" tonode="25721378" /><edge fromnode="25718956" id="4536672#3" nolanes="2" priority="0" shape="23524.630000,31320.500000 23531.440000,31360.000000" speed="8.33" spread="center" tonode="25718957" /><edge fromnode="25728831" id="4687483#1" nolanes="2" priority="0" shape="25534.130000,31014.500000 25618.940000,31037.000000" speed="13.89" spread="center" tonode="25728833" /><edge fromnode="290444868" id="26499826" nolanes="2" priority="0" shape="28266.310000,32246.500000 28193.880000,32249.000000" speed="8.33" spread="center" tonode="290444872" /><edge fromnode="90714040" id="10526453" nolanes="1" priority="0" shape="24103.940000,20498.500000 24110.130000,20561.500000" speed="22.22" spread="center" tonode="90714039" /><edge fromnode="28095023" id="6077082#2" nolanes="2" priority="0" shape="24124.880000,26360.500000 24332.310000,26641.500000" speed="27.78" spread="center" tonode="28095026" /><edge fromnode="365880" id="22588410#1" nolanes="2" priority="0" shape="20841.750000,25740.500000 21166.630000,25751.500000" speed="44.44" spread="center" tonode="365879" /><edge fromnode="258550094" id="23856870#4" nolanes="2" priority="0" shape="23476.690000,27821.000000 23422.630000,27910.500000" speed="13.89" spread="center" tonode="258550059" /><edge fromnode="288561152" id="26338400#0" nolanes="2" priority="0" shape="27415.060000,32157.000000 27522.880000,32267.500000" speed="13.89" spread="center" tonode="288561155" /><edge fromnode="151180957" id="15256798#1" nolanes="2" priority="0" shape="29526.560000,32427.000000 29480.750000,32420.500000" speed="8.33" spread="center" tonode="306288994" /><edge fromnode="585318" id="4685114" nolanes="3" priority="0" shape="19163.560000,30624.500000 19480.130000,30720.000000" speed="44.44" spread="center" tonode="585304" /><edge fromnode="266628066" id="24518618#0" nolanes="2" priority="0" shape="19332.560000,32209.000000 19259.190000,32137.000000" speed="13.89" spread="center" tonode="266628833" /><edge fromnode="305702898" id="27844310#0" nolanes="1" priority="0" shape="29635.750000,32066.500000 29644.500000,32057.500000" speed="22.22" spread="center" tonode="305702899" /><edge fromnode="278862695" id="25583413#0" nolanes="2" priority="0" shape="20865.630000,28571.000000 20870.940000,28519.000000" speed="13.89" spread="center" tonode="278863229" /><edge fromnode="293705563" id="13253784#1" nolanes="2" priority="0" shape="19970.560000,32809.500000 19948.000000,32825.500000" speed="8.33" spread="center" tonode="293672379" /><edge fromnode="201815742" id="25771617#1" nolanes="2" priority="0" shape="26096.130000,32934.000000 26087.130000,32815.000000" speed="13.89" spread="center" tonode="29388814" /><edge fromnode="299462166" id="27281149#1" nolanes="2" priority="0" shape="19695.250000,31268.500000 19769.310000,31278.500000" speed="8.33" spread="center" tonode="299462167" /><edge fromnode="268451159" id="25214050#1" nolanes="2" priority="0" shape="21772.750000,24342.000000 21849.810000,24121.500000" speed="13.89" spread="center" tonode="268451214" /><edge fromnode="277845420" id="25499763" nolanes="2" priority="0" shape="20564.130000,32799.500000 20429.690000,32754.000000" speed="13.89" spread="center" tonode="31884241" /><edge fromnode="25779936" id="4536674#1" nolanes="2" priority="0" shape="23761.630000,31195.000000 23894.630000,31195.000000" speed="8.33" spread="center" tonode="25718959" /><edge fromnode="289506346" id="26423201#0" nolanes="1" priority="0" shape="22577.500000,30687.000000 22598.440000,30705.500000" speed="22.22" spread="center" tonode="29271501" /><edge fromnode="302922094" id="28078871" nolanes="2" priority="0" shape="24557.810000,22399.500000 24528.560000,22067.000000" speed="13.89" spread="center" tonode="308318613" /><edge fromnode="294724362" id="27175849#1" nolanes="2" priority="0" shape="19824.190000,31545.000000 19798.880000,31563.000000" speed="13.89" spread="center" tonode="292391440" /><edge fromnode="28198635" id="8107596#0" nolanes="2" priority="0" shape="27138.190000,26071.000000 27135.380000,26109.500000" speed="13.89" spread="center" tonode="304146335" /><edge fromnode="60527111" id="26658396#0" nolanes="2" priority="0" shape="20864.130000,29883.000000 20825.440000,29868.500000" speed="27.78" spread="center" tonode="25869605" /><edge fromnode="296466082" id="27044780#1" nolanes="2" priority="0" shape="21004.060000,32115.500000 21017.810000,32131.000000" speed="13.89" spread="center" tonode="296471473" /><edge fromnode="308316426" id="24500307#3" nolanes="2" priority="0" shape="24247.440000,22733.500000 24250.500000,22754.000000" speed="13.89" spread="center" tonode="308316001" /><edge fromnode="300889188" id="8279736#1" nolanes="1" priority="0" shape="20567.190000,21129.000000 20632.130000,21094.500000" speed="22.22" spread="center" tonode="300886675" /><edge fromnode="29780130" id="4685115" nolanes="4" priority="0" shape="19227.630000,30818.500000 19318.750000,30509.500000" speed="44.44" spread="center" tonode="373141" /><edge fromnode="290444875" id="10211388#3" nolanes="2" priority="0" shape="28368.810000,32074.500000 28406.750000,32011.000000" speed="27.78" spread="center" tonode="29384514" /><edge fromnode="300617069" id="27384736#2" nolanes="2" priority="0" shape="20786.250000,21221.500000 20824.880000,21264.000000" speed="8.33" spread="center" tonode="300891860" /><edge fromnode="29131908" id="4607104" nolanes="2" priority="0" shape="24324.440000,31168.500000 24292.880000,31282.000000" speed="8.33" spread="center" tonode="29131910" /><edge fromnode="297303733" id="27096575" nolanes="2" priority="0" shape="29507.000000,28665.500000 29525.190000,28736.000000" speed="13.89" spread="center" tonode="297303754" /><edge fromnode="280557843" id="7981472#18" nolanes="1" priority="0" shape="21501.440000,32532.000000 21319.810000,32523.500000" speed="22.22" spread="center" tonode="277005788" /><edge fromnode="25721346" id="4395078#0" nolanes="2" priority="0" shape="23850.060000,31434.000000 23949.130000,31462.500000" speed="8.33" spread="center" tonode="25721374" /><edge fromnode="372896" id="26164974" nolanes="2" priority="0" shape="20687.880000,28126.000000 21048.130000,27654.500000" speed="44.44" spread="center" tonode="372892" /><edge fromnode="288561249" id="26338404#1" nolanes="2" priority="0" shape="27792.560000,32410.000000 27791.310000,32398.500000" speed="8.33" spread="center" tonode="288561248" /><edge fromnode="281234475" id="7981483#1" nolanes="2" priority="0" shape="22831.130000,32865.000000 22746.940000,32796.000000" speed="8.33" spread="center" tonode="281234476" /><edge fromnode="25728828" id="4687614#0" nolanes="2" priority="0" shape="25402.190000,3123