<routes><vehicle depart="21600" id="106741"><route edges="22949648" /></vehicle><vehicle depart="21600" id="1409231"><route edges="25583245" /></vehicle><vehicle depart="21600" id="1431303"><route edges="8378452" /></vehicle><vehicle depart="21600" id="1488391"><route edges="8378452" /></vehicle><vehicle depart="21600" id="1490074"><route edges="4008305" /></vehicle><vehicle depart="21600" id="272056"><route edges="24518452" /></vehicle><vehicle depart="21600" id="295205"><route edges="8378452" /></vehicle><vehicle depart="21600" id="452799"><route edges="4008305" /></vehicle><vehicle depart="21600" id="576462"><route edges="4008305" /></vehicle><vehicle depart="21600" id="819587"><route edges="6186296 6186300" /></vehicle><vehicle depart="21600" id="86170"><route edges="25071937" /></vehicle><vehicle depart="21600" id="873032"><route edges="25583245" /></vehicle><vehicle depart="21600" id="895083"><route edges="24518452" /></vehicle><vehicle depart="21600" id="940781"><route edges="8203024" /></vehicle><vehicle depart="21601" id="112294"><route edges="8203024" /></vehicle><vehicle depart="21601" id="1236181"><route edges="6186298" /></vehicle><vehicle depart="21601" id="1260791"><route edges="27462363 27462364 23125366 27939618 27939619 27939622" /></vehicle><vehicle depart="21602" id="170823"><route edges="24518572" /></vehicle><vehicle depart="21602" id="681187"><route edges="4008305" /></vehicle><vehicle depart="21603" id="172299"><route edges="27939618 27939619 27939622" /></vehicle><vehicle depart="21603" id="433756"><route edges="20895434" /></vehicle><vehicle depart="21603" id="553705"><route edges="9614234" /></vehicle><vehicle depart="21603" id="857585"><route edges="25579958" /></vehicle><vehicle depart="21604" id="1236681"><route edges="4008305" /></vehicle><vehicle depart="21604" id="745194"><route edges="6186298" /></vehicle><vehicle depart="21604" id="764423"><route edges="6186296 6186300" /></vehicle><vehicle depart="21605" id="586702"><route edges="26658780" /></vehicle><vehicle depart="21605" id="980111"><route edges="27939618 27939619 27939622" /></vehicle><vehicle depart="21606" id="1241712"><route edges="23977335" /></vehicle><vehicle depart="21606" id="394424"><route edges="6186298" /></vehicle><vehicle depart="21607" id="1040820"><route edges="4008305" /></vehicle><vehicle depart="21607" id="804093"><route edges="10318488" /></vehicle><vehicle depart="21607" id="940029"><route edges="24927805 8876894" /></vehicle><vehicle depart="21607" id="94475"><route edges="8378880" /></vehicle><vehicle depart="21608" id="1224109"><route edges="8203024" /></vehicle><vehicle depart="21608" id="1530889"><route edges="10318488" /></vehicle><vehicle depart="21608" id="313033"><route edges="27939618 27939619 27939622" /></vehicle><vehicle depart="21608" id="493292"><route edges="22764938 22764939" /></vehicle><vehicle depart="21608" id="528165"><route edges="23977335" /></vehicle><vehicle depart="21608" id="675689"><route edges="8378452" /></vehicle><vehicle depart="21608" id="854508"><route edges="4008305" /></vehicle><vehicle depart="21609" id="108895"><route edges="8203024" /></vehicle><vehicle depart="21609" id="197926"><route edges="6186296" /></vehicle><vehicle depart="21609" id="293137"><route edges="24037710" /></vehicle><vehicle depart="21609" id="505935"><route edges="6186296" /></vehicle><vehicle depart="21610" id="126322"><route edges="26658390" /></vehicle><vehicle depart="21610" id="1378256"><route edges="4008305" /></vehicle><vehicle depart="21610" id="674179"><route edges="20895434" /></vehicle><vehicle depart="21611" id="1269236"><route edges="8824373" /></vehicle><vehicle depart="21611" id="262958"><route edges="6186298 6186302 6186296" /></vehicle><vehicle depart="21612" id="333335"><route edges="25565813" /></vehicle><vehicle depart="21612" id="491030"><route edges="25592099" /></vehicle><vehicle depart="21612" id="582474"><route edges="4008305" /></vehicle><vehicle depart="21613" id="26613"><route edges="4008305" /></vehicle><vehicle depart="21613" id="620853"><route edges="25587617" /></vehicle><vehicle depart="21614" id="1033129"><route edges="22764938 22764939" /></vehicle><vehicle depart="21614" id="1064699"><route edges="6186296" /></vehicle><vehicle depart="21615" id="1295901"><route edges="4369154 26233138" /></vehicle><vehicle depart="21615" id="217201"><route edges="23686360" /></vehicle><vehicle depart="21615" id="262886"><route edges="6186296" /></vehicle><vehicle depart="21615" id="82867"><route edges="8203024" /></vehicle><vehicle depart="21616" id="1046319"><route edges="25587617" /></vehicle><vehicle depart="21616" id="345299"><route edges="8378452" /></vehicle><vehicle depart="21617" id="1192933"><route edges="8060764 8060766" /></vehicle><vehicle depart="21617" id="1193361"><route edges="24777461 24777459 22894587 22894590" /></vehicle><vehicle depart="21617" id="1405929"><route edges="27939618 27939619 27939622" /></vehicle><vehicle depart="21617" id="416928"><route edges="4008305" /></vehicle><vehicle depart="21617" id="74016"><route edges="19745228" /></vehicle><vehicle depart="21619" id="1196982"><route edges="9614234" /></vehicle><vehicle depart="21619" id="1470458"><route edges="6186296 6186300" /></vehicle><vehicle depart="21619" id="455373"><route edges="8203024" /></vehicle><vehicle depart="21620" id="249580"><route edges="20662821" /></vehicle><vehicle depart="21620" id="565224"><route edges="6186296 6186300" /></vehicle><vehicle depart="21620" id="641240"><route edges="6186296" /></vehicle><vehicle depart="21620" id="717792"><route edges="26658390" /></vehicle><vehicle depart="21621" id="1220865"><route edges="6186296" /></vehicle><vehicle depart="21621" id="552733"><route edges="8378452" /></vehicle><vehicle depart="21621" id="766383"><route edges="6186298" /></vehicle><vehicle depart="21622" id="1278196"><route edges="27939618 27939619 27939622" /></vehicle><vehicle depart="21622" id="28341"><route edges="25611065" /></vehicle><vehicle depart="21623" id="822621"><route edges="8203024" /></vehicle><vehicle depart="21623" id="970329"><route edges="6186296 6186300" /></vehicle><vehicle depart="21625" id="276051"><route edges="9614234" /></vehicle><vehicle depart="21625" id="284832"><route edges="24037710" /></vehicle><vehicle depart="21625" id="504028"><route edges="8203024" /></vehicle><vehicle depart="21626" id="1237403"><route edges="22587175 22587165 22587193 22587233 22587244 22587253 22587336" /></vehicle><vehicle depart="21626" id="131742"><route edges="25071937" /></vehicle><vehicle depart="21627" id="1105533"><route edges="6186296 6186300" /></vehicle><vehicle depart="21627" id="298835"><route edges="26658780" /></vehicle><vehicle depart="21628" id="1059589"><route edges="4008305" /></vehicle><vehicle depart="21628" id="1222647"><route edges="20662828 20662815" /></vehicle><vehicle depart="21628" id="618791"><route edges="24518452" /></vehicle><vehicle depart="21629" id="1379208"><route edges="10318488" /></vehicle><vehicle depart="21629" id="1381161"><route edges="23429134 25477316 22909134" /></vehicle><vehicle depart="21629" id="1520256"><route edges="4008305" /></vehicle><vehicle depart="21629" id="834169"><route edges="9872795" /></vehicle><vehicle depart="21630" id="457141"><route edges="19745228" /></vehicle><vehicle depart="21631" id="1208302"><route edges="25592099" /></vehicle><vehicle depart="21631" id="1545538"><route edges="22873531" /></vehicle><vehicle depart="21632" id="721097"><route edges="23429134 25477316 22909134" /></vehicle><vehicle depart="21633" id="1150471"><route edges="6186296" /></vehicle><vehicle depart="21633" id="862721"><route edges="8203024" /></vehicle><vehicle depart="21634" id="1352008"><route edges="4008305" /></vehicle><vehicle depart="21634" id="771662"><route edges="23977335" /></vehicle><vehicle depart="21635" id="110330"><route edges="23686360" /></vehicle><vehicle depart="21635" id="689724"><route edges="23048771 9872795" /></vehicle><vehicle depart="21635" id="935071"><route edges="4008305" /></vehicle><vehicle depart="21636" id="1156786"><route edges="6186296" /></vehicle><vehicle depart="21636" id="1300809"><route edges="22588437 8310892" /></vehicle><vehicle depart="21636" id="1546007"><route edges="6186296 6186300" /></vehicle><vehicle depart="21636" id="803392"><route edges="24777461 24777459 22894587 22894590" /></vehicle><vehicle depart="21637" id="1436731"><route edges="25587617" /></vehicle><vehicle depart="21637" id="153534"><route edges="8203024" /></vehicle><vehicle depart="21637" id="26973"><route edges="4008305" /></vehicle><vehicle depart="21637" id="446887"><route edges="8203024" /></vehicle><vehicle depart="21637" id="984412"><route edges="25587617" /></vehicle><vehicle depart="21638" id="1485763"><route edges="27939618 27939619 27939622" /></vehicle><vehicle depart="21638" id="209537"><route edges="19392620" /></vehicle><vehicle depart="21639" id="1106072"><route edges="25071937" /></vehicle><vehicle depart="21639" id="1167970"><route edges="4362030 21135651" /></vehicle><vehicle depart="21639" id="1297559"><route edges="6186298" /></vehicle><vehicle depart="21639" id="1397112"><route edges="24050876" /></vehicle><vehicle depart="21639" id="292032"><route edges="25587617" /></vehicle><vehicle depart="21639" id="320954"><route edges="24037710" /></vehicle><vehicle depart="21639" id="737595"><route edges="26658780" /></vehicle><vehicle depart="21639" id="827654"><route edges="6186296" /></vehicle><vehicle depart="21640" id="1528350"><route edges="6186296" /></vehicle><vehicle depart="21640" id="358382"><route edges="8378452" /></vehicle><vehicle depart="21640" id="594668"><route edges="4008305" /></vehicle><vehicle depart="21641" id="313417"><route edges="9614234" /></vehicle><vehicle depart="21641" id="923638"><route edges="20662819 20662824 20661568" /></vehicle><vehicle depart="21642" id="1294583"><route edges="6186296" /></vehicle><vehicle depart="21642" id="1485585"><route edges="4008305" /></vehicle><vehicle depart="21642" id="1542709"><route edges="25071937" /></vehicle><vehicle depart="21642" id="1547504"><route edges="24777461 24777459 22894587 22894590" /></vehicle><vehicle depart="21642" id="1565483"><route edges="19745228" /></vehicle><vehicle depart="21642" id="310240"><route edges="27879287" /></vehicle><vehicle depart="21643" id="100899"><route edges="24927805 8876894" /></vehicle><vehicle depart="21643" id="1535868"><route edges="20662821" /></vehicle><vehicle depart="21643" id="741090"><route edges="24766097" /></vehicle><vehicle depart="21644" id="1023333"><route edges="6186298" /></vehicle><vehicle depart="21644" id="1246128"><route edges="26233122 6186293" /></vehicle><vehicle depart="21644" id="1273500"><route edges="23429134 25477316 22909134" /></vehicle><vehicle depart="21645" id="1201358"><route edges="6186298" /></vehicle><vehicle depart="21645" id="568908"><route edges="27939618 27939619 27939622" /></vehicle><vehicle depart="21646" id="1270629"><route edges="24050876" /></vehicle><vehicle depart="21647" id="1025276"><route edges="23429134 25477316 22909134" /></vehicle><vehicle depart="21647" id="1127916"><route edges="27939618 27939619 27939622" /></vehicle><vehicle depart="21647" id="1516936"><route edges="8203024" /></vehicle><vehicle depart="21647" id="182113"><route edges="6186298" /></vehicle><vehicle depart="21648" id="1499467"><route edges="25587617" /></vehicle><vehicle depart="21648" id="1501475"><route edges="27939618 27939619 27939622" /></vehicle><vehicle depart="21648" id="168234"><route edges="6186298" /></vehicle><vehicle depart="21648" id="208298"><route edges="8378452" /></vehicle><vehicle depart="21648" id="285826"><route edges="16081496" /></vehicle><vehicle depart="21648" id="388246"><route edges="8060764 8060766" /></vehicle><vehicle depart="21649" id="1032914"><route edges="6186296" /></vehicle><vehicle depart="21649" id="1053194"><route edges="8203024" /></vehicle><vehicle depart="21649" id="1067508"><route edges="27462363 27462364 23125366 27939618 27939619 27939622" /></vehicle><vehicle depart="21649" id="1334828"><route edges="6186298 6186302 6186296" /></vehicle><vehicle depart="21650" id="1108629"><route edges="23543189 4940284" /></vehicle><vehicle depart="21650" id="519607"><route edges="10318488" /></vehicle><vehicle depart="21650" id="557794"><route edges="8203024" /></vehicle><vehicle depart="21650" id="901954"><route edges="8378452" /></vehicle><vehicle depart="21650" id="968783"><route edges="22587794 22894009 19392619" /></vehicle><vehicle depart="21651" id="1023750"><route edges="23977335" /></vehicle><vehicle depart="21651" id="122783"><route edges="22587718" /></vehicle><vehicle depart="21651" id="1404405"><route edges="26658390" /></vehicle><vehicle depart="21651" id="438418"><route edges="9614234" /></vehicle><vehicle depart="21651" id="730911"><route edges="6186296 6186300" /></vehicle><vehicle depart="21651" id="980499"><route edges="26658780" /></vehicle><vehicle depart="21652" id="1012305"><route edges="10318488" /></vehicle><vehicle depart="21652" id="749117"><route edges="8378452" /></vehicle><vehicle depart="21652" id="903493"><route edges="23429134 25477316 22909134" /></vehicle><vehicle depart="21652" id="916800"><route edges="6186296 6186300" /></vehicle><vehicle depart="21653" id="857776"><route edges="4008305" /></vehicle><vehicle depart="21654" id="1148271"><route edges="27682650" /></vehicle><vehicle depart="21654" id="1313632"><route edges="8378452" /></vehicle><vehicle depart="21654" id="1457291"><route edges="8060764 8060766" /></vehicle><vehicle depart="21654" id="1538563"><route edges="9614234" /></vehicle><vehicle depart="21654" id="682297"><route edges="25071937" /></vehicle><vehicle depart="21654" id="731064"><route edges="9614234" /></vehicle><vehicle depart="21655" id="1195508"><route edges="8203024" /></vehicle><vehicle depart="21655" id="136107"><route edges="10318488" /></vehicle><vehicle depart="21655" id="472524"><route edges="25592099" /></vehicle><vehicle depart="21655" id="535478"><route edges="9614234" /></vehicle><vehicle depart="21655" id="748162"><route edges="27018623" /></vehicle><vehicle depart="21655" id="81777"><route edges="26658780" /></vehicle><vehicle depart="21656" id="1346347"><route edges="27462363 27462364 23125366 27939618 27939619 27939622" /></vehicle><vehicle depart="21656" id="1360748"><route edges="22587794 22894009 19392619" /></vehicle><vehicle depart="21656" id="814197"><route edges="8203024" /></vehicle><vehicle depart="21657" id="1364822"><route edges="25592099" /></vehicle><vehicle depart="21657" id="1467557"><route edges="6186298" /></vehicle><vehicle depart="21657" id="153555"><route edges="22764938 22764939" /></vehicle><vehicle depart="21657" id="479990"><route edges="7837385" /></vehicle><vehicle depart="21657" id="80288"><route edges="26658390" /></vehicle><vehicle depart="21658" id="603566"><route edges="23429134 25477316 22909134" /></vehicle><vehicle depart="21658" id="690680"><route edges="23799644 4400462" /></vehicle><vehicle depart="21658" id="764570"><route edges="27939618 27939619 27939622" /></vehicle><vehicle depart="21659" id="1521180"><route edges="23429134 25477316 22909134" /></vehicle><vehicle depart="21659" id="1563227"><route edges="25592099" /></vehicle><vehicle depart="21659" id="231747"><route edges="23621539" /></vehicle><vehicle depart="21659" id="603518"><route edges="27939618 27939619 27939622" /></vehicle><vehicle depart="21659" id="808527"><route edges="6186298" /></vehicle><vehicle depart="21660" id="1571705"><route edges="6186296" /></vehicle><vehicle depart="21660" id="802090"><route edges="25583245" /></vehicle><vehicle depart="21661" id="1220980"><route edges="24050876" /></vehicle><vehicle depart="21661" id="1275565"><route edges="9614234" /></vehicle><vehicle depart="21661" id="1548215"><route edges="6186296 6186300" /></vehicle><vehicle depart="21661" id="672056"><route edges="25587617" /></vehicle><vehicle depart="21662" id="1056149"><route edges="26013371" /></vehicle><vehicle depart="21662" id="1588542"><route edges="27339401" /></vehicle><vehicle depart="21662" id="714778"><route edges="6186298" /></vehicle><vehicle depart="21662" id="845880"><route edges="7837385" /></vehicle><vehicle depart="21662" id="964078"><route edges="8906406" /></vehicle><vehicle depart="21663" id="1274379"><route edges="27939618 27939619 27939622" /></vehicle><vehicle depart="21664" id="1063169"><route edges="6186298" /></vehicle><vehicle depart="21664" id="1080229"><route edges="20662821" /></vehicle><vehicle depart="21664" id="1133236"><route edges="4008305" /></vehicle><vehicle depart="21664" id="1189692"><route edges="22598789" /></vehicle><vehicle depart="21664" id="1350963"><route edges="8203024" /></vehicle><vehicle depart="21664" id="1445993"><route edges="27939618 27939619 27939622" /></vehicle><vehicle depart="21664" id="1592855"><route edges="26658780" /></vehicle><vehicle depart="21664" id="278999"><route edges="25071937" /></vehicle><vehicle depart="21664" id="543105"><route edges="6186300" /></vehicle><vehicle depart="21664" id="598420"><route edges="6186296 6186300" /></vehicle><vehicle depart="21664" id="692468"><route edges="19745228" /></vehicle><vehicle depart="21664" id="830487"><route edges="6186296" /></vehicle><vehicle depart="21665" id="1155666"><route edges="8378452" /></vehicle><vehicle depart="21665" id="1274820"><route edges="6186296" /></vehicle><vehicle depart="21665" id="454626"><route edges="6186298" /></vehicle><vehicle depart="21665" id="580398"><route edges="23543189" /></vehicle><vehicle depart="21665" id="764987"><route edges="4008305" /></vehicle><vehicle depart="21665" id="84158"><route edges="23429134 25477316 22909134" /></vehicle><vehicle depart="21665" id="846183"><route edges="6186296" /></vehicle><vehicle depart="21666" id="1543939"><route edges="8060764 8060766" /></vehicle><vehicle depart="21666" id="1582847"><route edges="6186298 6186302 6186296" /></vehicle><vehicle depart="21666" id="35235"><route edges="6186296" /></vehicle><vehicle depart="21666" id="783616"><route edges="6186296" /></vehicle><vehicle depart="21666" id="841445"><route edges="6186296" /></vehicle><vehicle depart="21666" id="92640"><route edges="25587617" /></vehicle><vehicle depart="21667" id="1085049"><route edges="20662819 20662824 20661568" /></vehicle><vehicle depart="21667" id="1131940"><route edges="25587617" /></vehicle><vehicle depart="21667" id="1462260"><route edges="8060764 8060766" /></vehicle><vehicle depart="21667" id="1497805"><route edges="8378452" /></vehicle><vehicle depart="21667" id="185620"><route edges="25071937" /></vehicle><vehicle depart="21667" id="366571"><route edges="9614234" /></vehicle><vehicle depart="21667" id="815335"><route edges="8203024" /></vehicle><vehicle depart="21668" id="110554"><route edges="23705910 23655845" /></vehicle><vehicle depart="21668" id="1156424"><route edges="27939618 27939619 27939622" /></vehicle><vehicle depart="21668" id="1589239"><route edges="26658780" /></vehicle><vehicle depart="21668" id="409415"><route edges="6186296 6186300" /></vehicle><vehicle depart="21668" id="879034"><route edges="24037710" /></vehicle><vehicle depart="21669" id="1027395"><route edges="4531764" /></vehicle><vehicle depart="21669" id="1129417"><route edges="4008305" /></vehicle><vehicle depart="21669" id="1258606"><route edges="8378452" /></vehicle><vehicle depart="21669" id="1554947"><route edges="25587617" /></vehicle><vehicle depart="21669" id="237641"><route edges="8203024" /></vehicle><vehicle depart="21669" id="34641"><route edges="27939618 27939619 27939622" /></vehicle><vehicle depart="21669" id="356011"><route edges="25071937" /></vehicle><vehicle depart="21669" id="743633"><route edges="24050876" /></vehicle><vehicle depart="21669" id="795561"><route edges="21370516 4008304 26164913 26164998 4685116" /></vehicle><vehicle depart="21669" id="835016"><route edges="25592099" /></vehicle><vehicle depart="21670" id="50949"><route edges="23429134 25477316 22909134" /></vehicle><vehicle depart="21670" id="543190"><route edges="24037710" /></vehicle><vehicle depart="21670" id="588224"><route edges="4008305" /></vehicle><vehicle depart="21670" id="597405"><route edges="27939618 27939619 27939622" /></vehicle><vehicle depart="21670" id="965933"><route edges="10318488" /></vehicle><vehicle depart="21671" id="259843"><route edges="4008305" /></vehicle><vehicle depart="21671" id="715641"><route edges="26367909" /></vehicle><vehicle depart="21672" id="1070097"><route edges="25731995" /></vehicle><vehicle depart="21672" id="1437818"><route edges="27939618 27939619 27939622" /></vehicle><vehicle depart="21672" id="623026"><route edges="6186298" /></vehicle><vehicle depart="21672" id="840183"><route edges="4008305" /></vehicle><vehicle depart="21673" id="1098611"><route edges="6186298" /></vehicle><vehicle depart="21673" id="1237731"><route edges="10318488" /></vehicle><vehicle depart="21673" id="629732"><route edges="25587617" /></vehicle><vehicle depart="21673" id="823727"><route edges="6186298 6186302 6186296 6186300" /></vehicle><vehicle depart="21674" id="1104479"><route edges="27939618 27939619 27939622" /></vehicle><vehicle depart="21674" id="442392"><route edges="6186296 6186300" /></vehicle><vehicle depart="21675" id="1523812"><route edges="24037710" /></vehicle><vehicle depart="21675" id="372998"><route edges="8904790" /></vehicle><vehicle depart="21675" id="404786"><route edges="4008305" /></vehicle><vehicle depart="21676" id="1113453"><route edges="8378452" /></vehicle><vehicle depart="21676" id="574471"><route edges="6186296" /></vehicle><vehicle depart="21676" id="605483"><route edges="22873531" /></vehicle><vehicle depart="21676" id="812706"><route edges="9614234" /></vehicle><vehicle depart="21677" id="118409"><route edges="6186296" /></vehicle><vehicle depart="21677" id="145102"><route edges="6186296" /></vehicle><vehicle depart="21677" id="309395"><route edges="8378880" /></vehicle><vehicle depart="21677" id="390848"><route edges="6186296" /></vehicle><vehicle depart="21677" id="805581"><route edges="8203024" /></vehicle><vehicle depart="21677" id="996926"><route edges="23686313 23703825" /></vehicle><vehicle depart="21678" id="1241667"><route edges="8203024" /></vehicle><vehicle depart="21679" id="1125071"><route edges="27018623" /></vehicle><vehicle depart="21679" id="1462571"><route edges="6186296" /></vehicle><vehicle depart="21679" id="304272"><route edges="23686360" /></vehicle><vehicle depart="21679" id="507975"><route edges="24927805 8876894" /></vehicle><vehicle depart="21679" id="583861"><route edges="4008305" /></vehicle><vehicle depart="21679" id="868154"><route edges="20662819 20662824 20661568" /></vehicle><vehicle depart="21680" id="1180012"><route edges="8203024" /></vehicle><vehicle depart="21681" id="40522"><route edges="23686360" /></vehicle><vehicle depart="21681" id="742142"><route edges="22674865 22586753 22674877 22586752 21381107" /></vehicle><vehicle depart="21681" id="837755"><route edges="23686360" /></vehicle><vehicle depart="21682" id="1114028"><route edges="25587617" /></vehicle><vehicle depart="21682" id="392200"><route edges="8203024" /></vehicle><vehicle depart="21682" id="858383"><route edges="4008305" /></vehicle><vehicle depart="21683" id="802160"><route edges="8067163" /></vehicle><vehicle depart="21683" id="94544"><route edges="4008305" /></vehicle><vehicle depart="21684" id="119484"><route edges="7651883 7651811" /></vehicle><vehicle depart="21684" id="1301723"><route edges="20662819 20662824 20661568" /></vehicle><vehicle depart="21684" id="1325180"><route edges="24037710" /></vehicle><vehicle depart="21684" id="371980"><route edges="4008305" /></vehicle><vehicle depart="21684" id="991403"><route edges="22674865 22586753 22674877 22586752 21381107" /></vehicle><vehicle depart="21685" id="1136148"><route edges="8060764 8060766" /></vehicle><vehicle depart="21685" id="1319113"><route edges="27939618 27939619 27939622" /></vehicle><vehicle depart="21685" id="1511856"><route edges="6186296" /></vehicle><vehicle depart="21685" id="287908"><route edges="22764938 22764939" /></vehicle><vehicle depart="21685" id="745359"><route edges="4607281" /></vehicle><vehicle depart="21686" id="1027254"><route edges="8378452" /></vehicle><vehicle depart="21686" id="1563045"><route edges="24050876" /></vehicle><vehicle depart="21686" id="1566377"><route edges="4008305" /></vehicle><vehicle depart="21686" id="267042"><route edges="25731995" /></vehicle><vehicle depart="21686" id="274363"><route edges="27939618 27939619 27939622" /></vehicle><vehicle depart="21686" id="359818"><route edges="20895434" /></vehicle><vehicle depart="21686" id="478725"><route edges="10318488" /></vehicle><vehicle depart="21686" id="894042"><route edges="23429134 25477316 22909134" /></vehicle><vehicle depart="21686" id="972803"><route edges="6186296" /></vehicle><vehicle depart="21687" id="242532"><route edges="20662828 20662815" /></vehicle><vehicle depart="21687" id="925441"><route edges="24518572" /></vehicle><vehicle depart="21688" id="1578329"><route edges="4008305" /></vehicle><vehicle depart="21688" id="368210"><route edges="25495915" /></vehicle><vehicle depart="21688" id="381039"><route edges="6186296 6186300" /></vehicle><vehicle depart="21688" id="681401"><route edges="4008305" /></vehicle><vehicle depart="21688" id="737801"><route edges="25583245" /></vehicle><vehicle depart="21688" id="853127"><route edges="23686360" /></vehicle><vehicle depart="21689" id="13571"><route edges="4362030 21135651" /></vehicle><vehicle depart="21689" id="1469634"><route edges="6186298" /></vehicle><vehicle depart="21689" id="199869"><route edges="8203024" /></vehicle><vehicle depart="21690" id="1212309"><route edges="27939618 27939619 27939622" /></vehicle><vehicle depart="21690" id="374166"><route edges="6186296" /></vehicle><vehicle depart="21690" id="541987"><route edges="7837385" /></vehicle><vehicle depart="21690" id="631606"><route edges="25611065" /></vehicle><vehicle depart="21690" id="931642"><route edges="8104340" /></vehicle><vehicle depart="21691" id="1460784"><route edges="27879287" /></vehicle><vehicle depart="21691" id="881788"><route edges="6186298" /></vehicle><vehicle depart="21691" id="972884"><route edges="26013371" /></vehicle><vehicle depart="21692" id="1179487"><route edges="20662819 20662824 20661568" /></vehicle><vehicle depart="21692" id="128940"><route edges="10318488" /></vehicle><vehicle depart="21692" id="129328"><route edges="9614234" /></vehicle><vehicle depart="21692" id="1308217"><route edges="27018623" /></vehicle><vehicle depart="21692" id="478922"><route edges="22674865 22586753 22674877 22586752 21381107" /></vehicle><vehicle depart="21692" id="565308"><route edges="23655949" /></vehicle><vehicle depart="21692" id="945252"><route edges="27682650" /></vehicle><vehicle depart="21693" id="1224862"><route edges="20662828 20662815" /></vehicle><vehicle depart="21693" id="1453526"><route edges="6186296" /></vehicle><vehicle depart="21693" id="363384"><route edges="23686360" /></vehicle><vehicle depart="21693" id="560797"><route edges="6186296 6186300" /></vehicle><vehicle depart="21693" id="795534"><route edges="10318488" /></vehicle><vehicle depart="21694" id="274758"><route edges="27939618 27939619 27939622" /></vehicle><vehicle depart="21694" id="337421"><route edges="23613293" /></vehicle><vehicle depart="21694" id="548060"><route edges="6186296 6186300" /></vehicle><vehicle depart="21695" id="1035317"><route edges="8203024" /></vehicle><vehicle depart="21695" id="342297"><route edges="6186296" /></vehicle><vehicle depart="21695" id="359517"><route edges="27939618 27939619 27939622" /></vehicle><vehicle depart="21695" id="570450"><route edges="25071937" /></vehicle><vehicle depart="21695" id="943073"><route edges="25071937" /></vehicle><vehicle depart="21695" id="975959"><route edges="20895434" /></vehicle><vehicle depart="21696" id="1309603"><route edges="25071937" /></vehicle><vehicle depart="21696" id="1364174"><route edges="26658390" /></vehicle><vehicle depart="21696" id="226480"><route edges="8203024" /></vehicle><vehicle depart="21696" id="451994"><route edges="20662819 20662824 20661568" /></vehicle><vehicle depart="21696" id="489894"><route edges="20662821" /></vehicle><vehicle depart="21696" id="947293"><route edges="27939618 27939619 27939622" /></vehicle><vehicle depart="21697" id="1030593"><route edges="24518452" /></vehicle><vehicle depart="21697" id="1238948"><route edges="10318488" /></vehicle><vehicle depart="21697" id="1520637"><route edges="25592099" /></vehicle><vehicle depart="21697" id="1527015"><route edges="25071937" /></vehicle><vehicle depart="21697" id="209264"><route edges="23686360" /></vehicle><vehicle depart="21697" id="352767"><route edges="24518572" /></vehicle><vehicle depart="21697" id="523437"><route edges="27939618 27939619 27939622" /></vehicle><vehicle depart="21698" id="1223881"><route edges="23048771 9872795" /></vehicle><vehicle depart="21698" id="1327690"><route edges="27939618 27939619 27939622" /></vehicle><vehicle depart="21698" id="149926"><route edges="8203024" /></vehicle><vehicle depart="21698" id="282505"><route edges="22674865 22586753 22674877 22586752 21381107" /></vehicle><vehicle depart="21699" id="1073627"><route edges="10318488" /></vehicle><vehicle depart="21699" id="1145546"><route edges="8203024" /></vehicle><vehicle depart="21699" id="402582"><route edges="23977335" /></vehicle><vehicle depart="21699" id="592788"><route edges="8378452" /></vehicle><vehicle depart="21699" id="608152"><route edges="6186296 6186300" /></vehicle><vehicle depart="21700" id="1527271"><route edges="8203024" /></vehicle><vehicle depart="21700" id="281103"><route edges="26658390" /></vehicle><vehicle depart="21700" id="541560"><route edges="25579958" /></vehicle><vehicle depart="21700" id="584855"><route edges="27018623" /></