<?xml version="1.0"?>

<!-- generated on Wed Apr  8 21:17:33 2009 by SUMO netconvert Version 0.10.2
<configuration>

   <input>
      <xml-node-files>rand.nod.xml</xml-node-files>
      <xml-edge-files>rand.edg.xml</xml-edge-files>
   </input>

   <output>
      <output-file>rand.net.xml</output-file>
   </output>

   <report>
      <verbose>true</verbose>
   </report>

</configuration>
-->

<net>

   <net-offset>0.00,0.00</net-offset>
   <conv-boundary>0.00,0.00,888.47,812.81</conv-boundary>
   <orig-boundary>0.00,0.00,888.47,812.81</orig-boundary>
   <orig-proj>!</orig-proj>

   <edge id=":12_0" function="internal">
      <lanes>
         <lane id=":12_0_0" depart="0" maxspeed="13.90" length="6.11" >578.58,635.37 578.74,637.25 579.42,638.21 580.59,638.26 582.26,637.40</lane>
      </lanes>
   </edge>

   <edge id=":12_1" function="internal">
      <lanes>
         <lane id=":12_1_0" depart="0" maxspeed="13.90" length="8.31" >578.58,635.37 578.64,638.33 579.07,640.56 579.87,642.05 581.03,642.82</lane>
      </lanes>
   </edge>

   <edge id=":12_2" function="internal">
      <lanes>
         <lane id=":12_2_0" depart="0" maxspeed="13.90" length="8.30" >574.67,639.61 575.91,640.07 577.59,639.85 579.71,638.96 582.26,637.40</lane>
      </lanes>
   </edge>

   <edge id=":12_3" function="internal">
      <lanes>
         <lane id=":12_3_0" depart="0" maxspeed="13.90" length="7.12" >574.67,639.61 581.03,642.82</lane>
      </lanes>
   </edge>

   <edge id=":16_0" function="internal">
      <lanes>
         <lane id=":16_0_0" depart="0" maxspeed="13.90" length="5.37" >328.22,745.11 327.54,746.40 327.51,747.56 328.14,748.58 329.41,749.47</lane>
      </lanes>
   </edge>

   <edge id=":16_1" function="internal">
      <lanes>
         <lane id=":16_1_0" depart="0" maxspeed="13.90" length="10.73" >328.22,745.11 326.35,747.57 324.79,749.23 322.95,750.57 320.24,752.05</lane>
      </lanes>
   </edge>

   <edge id=":16_2" function="internal">
      <lanes>
         <lane id=":16_2_0" depart="0" maxspeed="13.90" length="8.84" >328.22,745.11 325.98,747.74 324.15,749.07 322.70,749.08 321.65,747.77</lane>
      </lanes>
   </edge>

   <edge id=":2_0" function="internal">
      <lanes>
         <lane id=":2_0_0" depart="0" maxspeed="13.90" length="5.13" >578.31,455.82 579.25,454.74 579.57,453.65 579.28,452.55 578.38,451.44</lane>
      </lanes>
   </edge>

   <edge id=":2_1" function="internal">
      <lanes>
         <lane id=":2_1_0" depart="0" maxspeed="13.90" length="11.09" >578.31,455.82 580.74,454.21 583.26,453.53 585.87,453.79 588.56,454.99</lane>
      </lanes>
   </edge>

   <edge id=":2_2" function="internal">
      <lanes>
         <lane id=":2_2_0" depart="0" maxspeed="13.90" length="10.10" >578.31,455.82 581.24,453.70 583.30,453.19 584.48,454.30 584.80,457.02</lane>
      </lanes>
   </edge>

   <edge id=":21_0" function="internal">
      <lanes>
         <lane id=":21_0_0" depart="0" maxspeed="13.90" length="7.42" >453.71,336.24 448.91,330.59</lane>
      </lanes>
   </edge>

   <edge id=":21_1" function="internal">
      <lanes>
         <lane id=":21_1_0" depart="0" maxspeed="13.90" length="6.92" >453.71,336.24 453.00,335.22 452.64,333.77 452.63,331.90 452.96,329.61</lane>
      </lanes>
   </edge>

   <edge id=":21_2" function="internal">
      <lanes>
         <lane id=":21_2_0" depart="0" maxspeed="13.90" length="5.43" >448.11,335.04 449.32,334.17 449.86,333.14 449.72,331.95 448.91,330.59</lane>
      </lanes>
   </edge>

   <edge id=":21_3" function="internal">
      <lanes>
         <lane id=":21_3_0" depart="0" maxspeed="13.90" length="7.52" >448.11,335.04 449.98,333.90 451.41,332.62 452.41,331.19 452.96,329.61</lane>
      </lanes>
   </edge>

   <edge id=":27_0" function="internal">
      <lanes>
         <lane id=":27_0_0" depart="0" maxspeed="13.90" length="5.71" >723.09,536.74 724.43,537.27 725.65,537.16 726.75,536.40 727.73,535.00</lane>
      </lanes>
   </edge>

   <edge id=":27_1" function="internal">
      <lanes>
         <lane id=":27_1_0" depart="0" maxspeed="13.90" length="7.25" >723.09,536.74 728.64,541.40</lane>
      </lanes>
   </edge>

   <edge id=":27_2" function="internal">
      <lanes>
         <lane id=":27_2_0" depart="0" maxspeed="13.90" length="7.55" >723.20,541.05 727.73,535.00</lane>
      </lanes>
   </edge>

   <edge id=":27_3" function="internal">
      <lanes>
         <lane id=":27_3_0" depart="0" maxspeed="13.90" length="6.41" >723.20,541.05 725.05,540.04 726.58,539.76 727.77,540.22 728.64,541.40</lane>
      </lanes>
   </edge>

   <edge id=":30_0" function="internal">
      <lanes>
         <lane id=":30_0_0" depart="0" maxspeed="13.90" length="6.60" >136.79,273.73 132.68,268.57</lane>
      </lanes>
   </edge>

   <edge id=":30_1" function="internal">
      <lanes>
         <lane id=":30_1_0" depart="0" maxspeed="13.90" length="5.56" >136.79,273.73 135.71,272.52 135.43,271.40 135.95,270.37 137.28,269.43</lane>
      </lanes>
   </edge>

   <edge id=":43_0" function="internal">
      <lanes>
         <lane id=":43_0_0" depart="0" maxspeed="13.90" length="6.52" >801.01,701.58 802.08,703.35 803.12,703.93 804.14,703.32 805.14,701.51</lane>
      </lanes>
   </edge>

   <edge id=":43_1" function="internal">
      <lanes>
         <lane id=":43_1_0" depart="0" maxspeed="13.90" length="9.56" >801.01,701.58 805.41,710.06</lane>
      </lanes>
   </edge>

   <edge id=":43_2" function="internal">
      <lanes>
         <lane id=":43_2_0" depart="0" maxspeed="13.90" length="8.85" >799.63,707.70 800.97,707.61 802.33,706.54 803.72,704.51 805.14,701.51</lane>
      </lanes>
   </edge>

   <edge id=":43_3" function="internal">
      <lanes>
         <lane id=":43_3_0" depart="0" maxspeed="13.90" length="6.25" >799.63,707.70 805.41,710.06</lane>
      </lanes>
   </edge>

   <edge id=":6_0" function="internal">
      <lanes>
         <lane id=":6_0_0" depart="0" maxspeed="13.90" length="6.55" >301.48,413.41 296.51,409.15</lane>
      </lanes>
   </edge>

   <edge id=":6_1" function="internal">
      <lanes>
         <lane id=":6_1_0" depart="0" maxspeed="13.90" length="5.61" >301.48,413.41 300.40,412.15 300.12,411.01 300.64,409.97 301.96,409.04</lane>
      </lanes>
   </edge>

   <edge id=":73_0" function="internal">
      <lanes>
         <lane id=":73_0_0" depart="0" maxspeed="13.90" length="7.46" >325.90,175.63 323.34,168.62</lane>
      </lanes>
   </edge>

   <edge id=":73_1" function="internal">
      <lanes>
         <lane id=":73_1_0" depart="0" maxspeed="13.90" length="6.75" >325.90,175.63 325.34,174.42 325.41,173.01 326.12,171.40 327.45,169.59</lane>
      </lanes>
   </edge>

   <edge id=":73_2" function="internal">
      <lanes>
         <lane id=":73_2_0" depart="0" maxspeed="13.90" length="6.51" >321.25,174.21 322.55,173.26 323.33,172.01 323.59,170.46 323.34,168.62</lane>
      </lanes>
   </edge>

   <edge id=":73_3" function="internal">
      <lanes>
         <lane id=":73_3_0" depart="0" maxspeed="13.90" length="7.74" >321.25,174.21 327.45,169.59</lane>
      </lanes>
   </edge>



   <edge id="100" from="73" to="99" priority="-1" type="" function="normal">
      <lanes>
         <lane id="100_0" depart="1" vclasses="" maxspeed="13.90" length="105.38">323.34,168.62 297.02,66.58</lane>
      </lanes>
   </edge>

   <edge id="106" from="73" to="105" priority="-1" type="" function="normal">
      <lanes>
         <lane id="106_0" depart="1" vclasses="" maxspeed="13.90" length="225.40">327.45,169.59 474.69,-1.08</lane>
      </lanes>
   </edge>

   <edge id="13" from="1" to="12" priority="-1" type="" function="normal">
      <lanes>
         <lane id="13_0" depart="1" vclasses="" maxspeed="13.90" length="132.66">469.94,558.19 574.67,639.61</lane>
      </lanes>
   </edge>

   <edge id="17" from="1" to="16" priority="-1" type="" function="normal">
      <lanes>
         <lane id="17_0" depart="1" vclasses="" maxspeed="13.90" length="228.25">463.68,561.40 328.22,745.11</lane>
      </lanes>
   </edge>

   <edge id="18" from="2" to="12" priority="-1" type="" function="normal">
      <lanes>
         <lane id="18_0" depart="1" vclasses="" maxspeed="13.90" length="178.46">584.80,457.02 578.58,635.37</lane>
      </lanes>
   </edge>

   <edge id="22" from="2" to="21" priority="-1" type="" function="normal">
      <lanes>
         <lane id="22_0" depart="1" vclasses="" maxspeed="13.90" length="169.74">578.38,451.44 453.71,336.24</lane>
      </lanes>
   </edge>

   <edge id="28" from="2" to="27" priority="-1" type="" function="normal">
      <lanes>
         <lane id="28_0" depart="1" vclasses="" maxspeed="13.90" length="157.42">588.56,454.99 723.09,536.74</lane>
      </lanes>
   </edge>

   <edge id="29" from="6" to="21" priority="-1" type="" function="normal">
      <lanes>
         <lane id="29_0" depart="1" vclasses="" maxspeed="13.90" length="163.82">301.96,409.04 448.11,335.04</lane>
      </lanes>
   </edge>

   <edge id="3" from="1" to="2" priority="-1" type="" function="normal">
      <lanes>
         <lane id="3_0" depart="1" vclasses="" maxspeed="13.90" length="146.69">467.72,552.18 578.31,455.82</lane>
      </lanes>
   </edge>

   <edge id="31" from="6" to="30" priority="-1" type="" function="normal">
      <lanes>
         <lane id="31_0" depart="1" vclasses="" maxspeed="13.90" length="209.41">296.51,409.15 136.79,273.73</lane>
      </lanes>
   </edge>

   <edge id="32" from="12" to="27" priority="-1" type="" function="normal">
      <lanes>
         <lane id="32_0" depart="1" vclasses="" maxspeed="13.90" length="170.72">582.26,637.40 723.20,541.05</lane>
      </lanes>
   </edge>

   <edge id="44" from="12" to="43" priority="-1" type="" function="normal">
      <lanes>
         <lane id="44_0" depart="1" vclasses="" maxspeed="13.90" length="228.03">581.03,642.82 799.63,707.70</lane>
      </lanes>
   </edge>

   <edge id="46" from="16" to="45" priority="-1" type="" function="normal">
      <lanes>
         <lane id="46_0" depart="1" vclasses="" maxspeed="13.90" length="204.49">321.65,747.77 240.44,560.10</lane>
      </lanes>
   </edge>

   <edge id="54" from="16" to="53" priority="-1" type="" function="normal">
      <lanes>
         <lane id="54_0" depart="1" vclasses="" maxspeed="13.90" length="99.83">320.24,752.05 231.38,797.53</lane>
      </lanes>
   </edge>

   <edge id="58" from="16" to="57" priority="-1" type="" function="normal">
      <lanes>
         <lane id="58_0" depart="1" vclasses="" maxspeed="13.90" length="135.62">329.41,749.47 450.09,811.34</lane>
      </lanes>
   </edge>

   <edge id="62" from="21" to="61" priority="-1" type="" function="normal">
      <lanes>
         <lane id="62_0" depart="1" vclasses="" maxspeed="13.90" length="109.01">452.96,329.61 474.57,222.76</lane>
      </lanes>
   </edge>

   <edge id="7" from="1" to="6" priority="-1" type="" function="normal">
      <lanes>
         <lane id="7_0" depart="1" vclasses="" maxspeed="13.90" length="212.68">460.51,554.64 301.48,413.41</lane>
      </lanes>
   </edge>

   <edge id="74" from="21" to="73" priority="-1" type="" function="normal">
      <lanes>
         <lane id="74_0" depart="1" vclasses="" maxspeed="13.90" length="197.84">448.91,330.59 325.90,175.63</lane>
      </lanes>
   </edge>

   <edge id="75" from="27" to="43" priority="-1" type="" function="normal">
      <lanes>
         <lane id="75_0" depart="1" vclasses="" maxspeed="13.90" length="175.77">728.64,541.40 801.01,701.58</lane>
      </lanes>
   </edge>

   <edge id="81" from="27" to="80" priority="-1" type="" function="normal">
      <lanes>
         <lane id="81_0" depart="1" vclasses="" maxspeed="13.90" length="124.11">727.73,535.00 785.79,425.32</lane>
      </lanes>
   </edge>

   <edge id="82" from="30" to="73" priority="-1" type="" function="normal">
      <lanes>
         <lane id="82_0" depart="1" vclasses="" maxspeed="13.90" length="207.15">137.28,269.43 321.25,174.21</lane>
      </lanes>
   </edge>

   <edge id="84" from="30" to="83" priority="-1" type="" function="normal">
      <lanes>
         <lane id="84_0" depart="1" vclasses="" maxspeed="13.90" length="234.11">132.68,268.57 -1.35,76.62</lane>
      </lanes>
   </edge>

   <edge id="90" from="43" to="89" priority="-1" type="" function="normal">
      <lanes>
         <lane id="90_0" depart="1" vclasses="" maxspeed="13.90" length="104.98">805.41,710.06 889.46,772.96</lane>
      </lanes>
   </edge>

   <edge id="94" from="43" to="93" priority="-1" type="" function="normal">
      <lanes>
         <lane id="94_0" depart="1" vclasses="" maxspeed="13.90" length="192.70">805.14,701.51 878.43,523.29</lane>
      </lanes>
   </edge>


   <row-logic>
      <key>12</key>
      <requestsize>4</requestsize>
      <lanenumber>2</lanenumber>
      <logic>
         <logicitem request="0" response="0000" foes="0100" cont="0"/>
         <logicitem request="1" response="0000" foes="1100" cont="0"/>
         <logicitem request="2" response="0011" foes="0011" cont="0"/>
         <logicitem request="3" response="0010" foes="0010" cont="0"/>
      </logic>
   </row-logic>

   <row-logic>
      <key>16</key>
      <requestsize>3</requestsize>
      <lanenumber>1</lanenumber>
      <logic>
         <logicitem request="0" response="000" foes="000" cont="0"/>
         <logicitem request="1" response="000" foes="000" cont="0"/>
         <logicitem request="2" response="000" foes="000" cont="0"/>
      </logic>
   </row-logic>

   <row-logic>
      <key>2</key>
      <requestsize>3</requestsize>
      <lanenumber>1</lanenumber>
      <logic>
         <logicitem request="0" response="000" foes="000" cont="0"/>
         <logicitem request="1" response="000" foes="000" cont="0"/>
         <logicitem request="2" response="000" foes="000" cont="0"/>
      </logic>
   </row-logic>

   <row-logic>
      <key>21</key>
      <requestsize>4</requestsize>
      <lanenumber>2</lanenumber>
      <logic>
         <logicitem request="0" response="1100" foes="1100" cont="0"/>
         <logicitem request="1" response="1000" foes="1000" cont="0"/>
         <logicitem request="2" response="0000" foes="0001" cont="0"/>
         <logicitem request="3" response="0000" foes="0011" cont="0"/>
      </logic>
   </row-logic>

   <row-logic>
      <key>27</key>
      <requestsize>4</requestsize>
      <lanenumber>2</lanenumber>
      <logic>
         <logicitem request="0" response="0000" foes="0100" cont="0"/>
         <logicitem request="1" response="0000" foes="1100" cont="0"/>
         <logicitem request="2" response="0011" foes="0011" cont="0"/>
         <logicitem request="3" response="0010" foes="0010" cont="0"/>
      </logic>
   </row-logic>

   <row-logic>
      <key>30</key>
      <requestsize>2</requestsize>
      <lanenumber>1</lanenumber>
      <logic>
         <logicitem request="0" response="00" foes="00" cont="0"/>
         <logicitem request="1" response="00" foes="00" cont="0"/>
      </logic>
   </row-logic>

   <row-logic>
      <key>43</key>
      <requestsize>4</requestsize>
      <lanenumber>2</lanenumber>
      <logic>
         <logicitem request="0" response="0000" foes="0100" cont="0"/>
         <logicitem request="1" response="0000" foes="1100" cont="0"/>
         <logicitem request="2" response="0011" foes="0011" cont="0"/>
         <logicitem request="3" response="0010" foes="0010" cont="0"/>
      </logic>
   </row-logic>

   <row-logic>
      <key>6</key>
      <requestsize>2</requestsize>
      <lanenumber>1</lanenumber>
      <logic>
         <logicitem request="0" response="00" foes="00" cont="0"/>
         <logicitem request="1" response="00" foes="00" cont="0"/>
      </logic>
   </row-logic>

   <row-logic>
      <key>73</key>
      <requestsize>4</requestsize>
      <lanenumber>2</lanenumber>
      <logic>
         <logicitem request="0" response="1100" foes="1100" cont="0"/>
         <logicitem request="1" response="1000" foes="1000" cont="0"/>
         <logicitem request="2" response="0000" foes="0001" cont="0"/>
         <logicitem request="3" response="0000" foes="0011" cont="0"/>
      </logic>
   </row-logic>



   <junction id="1" type="DEAD_END" x="465.18" y="556.58">
      <inclanes></inclanes>
      <intlanes></intlanes>
      <shape>468.96,559.46 470.92,556.93 468.77,553.39 466.67,550.98 461.57,553.44 459.45,555.83 462.39,560.45 464.97,562.35</shape>
   </junction>

   <junction id="105" type="DEAD_END" x="475.94" y="0.00">
      <inclanes>106_0</inclanes>
      <intlanes></intlanes>
      <shape>473.48,-2.12 475.90,-0.03</shape>
   </junction>

   <junction id="12" type="priority" x="576.65" y="643.24">
      <inclanes>18_0 13_0</inclanes>
      <intlanes>:12_0_0 :12_1_0 :12_2_0 :12_3_0</intlanes>
      <shape>580.57,644.35 581.48,641.28 583.17,638.72 581.36,636.08 580.17,635.43 576.98,635.32 575.65,638.35 573.69,640.88</shape>
   </junction>

   <junction id="16" type="priority" x="323.73" y="748.41">
      <inclanes>17_0</inclanes>
      <intlanes>:16_0_0 :16_1_0 :16_2_0</intlanes>
      <shape>328.68,750.89 330.14,748.05 329.50,746.05 326.93,744.16 323.12,747.13 320.19,748.40 319.52,750.62 320.97,753.47</shape>
   </junction>

   <junction id="2" type="priority" x="583.26" y="453.70">
      <inclanes>3_0</inclanes>
      <intlanes>:2_0_0 :2_1_0 :2_2_0</intlanes>
      <shape>587.73,456.36 589.39,453.62 579.46,450.26 577.29,452.61 577.26,454.61 579.37,457.03 583.20,456.97 586.39,457.08</shape>
   </junction>

   <junction id="21" type="priority" x="453.75" y="334.03">
      <inclanes>22_0 29_0</inclanes>
      <intlanes>:21_0_0 :21_1_0 :21_2_0 :21_3_0</intlanes>
      <shape>452.63,337.42 454.80,335.07 454.53,329.93 451.39,329.29 450.16,329.59 447.66,331.58 447.39,333.61 448.83,336.46</shape>
   </junction>

   <junction id="27" type="priority" x="726.54" y="540.77">
      <inclanes>28_0 32_0</inclanes>
      <intlanes>:27_0_0 :27_1_0 :27_2_0 :27_3_0</intlanes>
      <shape>727.18,542.06 730.09,540.74 729.14,535.75 726.31,534.26 723.92,535.37 722.25,538.11 722.30,539.73 724.10,542.37</shape>
   </junction>

   <junction id="30" type="priority" x="136.77" y="271.55">
      <inclanes>31_0</inclanes>
      <intlanes>:30_0_0 :30_1_0</intlanes>
      <shape>135.76,274.95 137.82,272.51 138.01,270.85 136.54,268.01 133.99,267.66 131.37,269.49</shape>
   </junction>

   <junction id="43" type="priority" x="803.23" y="710.49">
      <inclanes>75_0 44_0</inclanes>
      <intlanes>:43_0_0 :43_1_0 :43_2_0 :43_3_0</intlanes>
      <shape>804.45,711.34 806.37,708.78 806.62,702.12 803.66,700.90 802.47,700.92 799.56,702.24 800.09,706.17 799.18,709.23</shape>
   </junction>

   <junction id="45" type="DEAD_END" x="241.95" y="559.44">
      <inclanes>46_0</inclanes>
      <intlanes></intlanes>
      <shape>238.97,560.73 241.90,559.46</shape>
   </junction>

   <junction id="53" type="DEAD_END" x="230.63" y="796.06">
      <inclanes>54_0</inclanes>
      <intlanes></intlanes>
      <shape>232.11,798.95 230.65,796.10</shape>
   </junction>

   <junction id="57" type="DEAD_END" x="449.34" y="812.81">
      <inclanes>58_0</inclanes>
      <intlanes></intlanes>
      <shape>450.82,809.92 449.36,812.77</shape>
   </junction>

   <junction id="6" type="priority" x="301.43" y="411.16">
      <inclanes>7_0</inclanes>
      <intlanes>:6_0_0 :6_1_0</intlanes>
      <shape>300.42,414.61 302.55,412.22 302.68,410.47 301.23,407.62 297.55,407.93 295.48,410.37</shape>
   </junction>

   <junction id="61" type="DEAD_END" x="476.19" y="223.09">
      <inclanes>62_0</inclanes>
      <intlanes></intlanes>
      <shape>473.00,222.45 476.14,223.08</shape>
   </junction>

   <junction id="73" type="priority" x="326.29" y="173.46">
      <inclanes>74_0 82_0</inclanes>
      <intlanes>:73_0_0 :73_1_0 :73_2_0 :73_3_0</intlanes>
      <shape>324.65,176.62 327.16,174.63 328.67,170.63 326.24,168.54 324.89,168.22 321.79,169.02 320.51,172.79 321.99,175.63</shape>
   </junction>

   <junction id="80" type="DEAD_END" x="787.25" y="426.09">
      <inclanes>81_0</inclanes>
      <intlanes></intlanes>
      <shape>784.38,424.57 787.21,426.07</shape>
   </junction>

   <junction id="83" type="DEAD_END" x="0.00" y="75.68">
      <inclanes>84_0</inclanes>
      <intlanes></intlanes>
      <shape>-2.66,77.54 -0.04,75.71</shape>
   </junction>

   <junction id="89" type="DEAD_END" x="888.47" y="774.28">
      <inclanes>90_0</inclanes>
      <intlanes></intlanes>
      <shape>890.42,771.68 888.50,774.24</shape>
   </junction>

   <junction id="93" type="DEAD_END" x="879.96" y="523.92">
      <inclanes>94_0</inclanes>
      <intlanes></intlanes>
      <shape>876.95,522.68 879.91,523.90</shape>
   </junction>

   <junction id="99" type="DEAD_END" x="298.62" y="66.17">
      <inclanes>100_0</inclanes>
      <intlanes></intlanes>
      <shape>295.47,66.98 298.57,66.18</shape>
   </junction>



   <succ edge="100" lane="100_0" junction="99">
      <succlane lane="SUMO_NO_DESTINATION" yield="1" dir="s" state="O"/>
   </succ>

   <succ edge="106" lane="106_0" junction="105">
      <succlane lane="SUMO_NO_DESTINATION" yield="1" dir="s" state="O"/>
   </succ>

   <succ edge="13" lane="13_0" junction="12">
      <succlane lane="32_0" via=":12_2_0" yield="1" dir="r" state="m"/>
      <succlane lane="44_0" via=":12_3_0" yield="1" dir="s" state="m"/>
   </succ>

   <succ edge="17" lane="17_0" junction="16">
      <succlane lane="58_0" via=":16_0_0" yield="0" dir="r" state="M"/>
      <succlane lane="54_0" via=":16_1_0" yield="0" dir="s" state="M"/>
      <succlane lane="46_0" via=":16_2_0" yield="0" dir="l" state="M"/>
   </succ>

   <succ edge="18" lane="18_0" junction="12">
      <succlane lane="32_0" via=":12_0_0" yield="0" dir="r" state="M"/>
      <succlane lane="44_0" via=":12_1_0" yield="0" dir="R" state="M"/>
   </succ>

   <succ edge="22" lane="22_0" junction="21">
      <succlane lane="74_0" via=":21_0_0" yield="1" dir="s" state="m"/>
      <succlane lane="62_0" via=":21_1_0" yield="1" dir="l" state="m"/>
   </succ>

   <succ edge="28" lane="28_0" junction="27">
      <succlane lane="81_0" via=":27_0_0" yield="0" dir="r" state="M"/>
      <succlane lane="75_0" via=":27_1_0" yield="0" dir="s" state="M"/>
   </succ>

   <succ edge="29" lane="29_0" junction="21">
      <succlane lane="74_0" via=":21_2_0" yield="0" dir="r" state="M"/>
      <succlane lane="62_0" via=":21_3_0" yield="0" dir="R" state="M"/>
   </succ>

   <succ edge="3" lane="3_0" junction="2">
      <succlane lane="22_0" via=":2_0_0" yield="0" dir="r" state="M"/>
      <succlane lane="28_0" via=":2_1_0" yield="0" dir="L" state="M"/>
      <succlane lane="18_0" via=":2_2_0" yield="0" dir="l" state="M"/>
   </succ>

   <succ edge="31" lane="31_0" junction="30">
      <succlane lane="84_0" via=":30_0_0" yield="0" dir="s" state="M"/>
      <succlane lane="82_0" via=":30_1_0" yield="0" dir="l" state="M"/>
   </succ>

   <succ edge="32" lane="32_0" junction="27">
      <succlane lane="81_0" via=":27_2_0" yield="1" dir="s" state="m"/>
      <succlane lane="75_0" via=":27_3_0" yield="1" dir="l" state="m"/>
   </succ>

   <succ edge="44" lane="44_0" junction="43">
      <succlane lane="94_0" via=":43_2_0" yield="1" dir="r" state="m"/>
      <succlane lane="90_0" via=":43_3_0" yield="1" dir="s" state="m"/>
   </succ>

   <succ edge="46" lane="46_0" junction="45">
      <succlane lane="SUMO_NO_DESTINATION" yield="1" dir="s" state="O"/>
   </succ>

   <succ edge="54" lane="54_0" junction="53">
      <succlane lane="SUMO_NO_DESTINATION" yield="1" dir="s" state="O"/>
   </succ>

   <succ edge="58" lane="58_0" junction="57">
      <succlane lane="SUMO_NO_DESTINATION" yield="1" dir="s" state="O"/>
   </succ>

   <succ edge="62" lane="62_0" junction="61">
      <succlane lane="SUMO_NO_DESTINATION" yield="1" dir="s" state="O"/>
   </succ>

   <succ edge="7" lane="7_0" junction="6">
      <succlane lane="31_0" via=":6_0_0" yield="0" dir="s" state="M"/>
      <succlane lane="29_0" via=":6_1_0" yield="0" dir="l" state="M"/>
   </succ>

   <succ edge="74" lane="74_0" junction="73">
      <succlane lane="100_0" via=":73_0_0" yield="1" dir="s" state="m"/>
      <succlane lane="106_0" via=":73_1_0" yield="1" dir="l" state="m"/>
   </succ>

   <succ edge="75" lane="75_0" junction="43">
      <succlane lane="94_0" via=":43_0_0" yield="0" dir="r" state="M"/>
      <succlane lane="90_0" via=":43_1_0" yield="0" dir="s" state="M"/>
   </succ>

   <succ edge="81" lane="81_0" junction="80">
      <succlane lane="SUMO_NO_DESTINATION" yield="1" dir="s" state="O"/>
   </succ>

   <succ edge="82" lane="82_0" junction="73">
      <succlane lane="100_0" via=":73_2_0" yield="0" dir="r" state="M"/>
      <succlane lane="106_0" via=":73_3_0" yield="0" dir="s" state="M"/>
   </succ>

   <succ edge="84" lane="84_0" junction="83">
      <succlane lane="SUMO_NO_DESTINATION" yield="1" dir="s" state="O"/>
   </succ>

   <succ edge="90" lane="90_0" junction="89">
      <succlane lane="SUMO_NO_DESTINATION" yield="1" dir="s" state="O"/>
   </succ>

   <succ edge="94" lane="94_0" junction="93">
      <succlane lane="SUMO_NO_DESTINATION" yield="1" dir="s" state="O"/>
   </succ>


   <succ edge=":12_0" lane=":12_0_0" junction="12">
      <succlane lane="32_0" tl="" linkno="" yield="0" dir="s" state="M"/>
   </succ>
   <succ edge=":12_1" lane=":12_1_0" junction="12">
      <succlane lane="44_0" tl="" linkno="" yield="0" dir="s" state="M"/>
   </succ>
   <succ edge=":12_2" lane=":12_2_0" junction="12">
      <succlane lane="32_0" tl="" linkno="" yield="0" dir="s" state="M"/>
   </succ>
   <succ edge=":12_3" lane=":12_3_0" junction="12">
      <succlane lane="44_0" tl="" linkno="" yield="0" dir="s" state="M"/>
   </succ>
   <succ edge=":16_0" lane=":16_0_0" junction="16">
      <succlane lane="58_0" tl="" linkno="" yield="0" dir="s" state="M"/>
   </succ>
   <succ edge=":16_1" lane=":16_1_0" junction="16">
      <succlane lane="54_0" tl="" linkno="" yield="0" dir="s" state="M"/>
   </succ>
   <succ edge=":16_2" lane=":16_2_0" junction="16">
      <succlane lane="46_0" tl="" linkno="" yield="0" dir="s" state="M"/>
   </succ>
   <succ edge=":2_0" lane=":2_0_0" junction="2">
      <succlane lane="22_0" tl="" linkno="" yield="0" dir="s" state="M"/>
   </succ>
   <succ edge=":2_1" lane=":2_1_0" junction="2">
      <succlane lane="28_0" tl="" linkno="" yield="0" dir="s" state="M"/>
   </succ>
   <succ edge=":2_2" lane=":2_2_0" junction="2">
      <succlane lane="18_0" tl="" linkno="" yield="0" dir="s" state="M"/>
   </succ>
   <succ edge=":21_0" lane=":21_0_0" junction="21">
      <succlane lane="74_0" tl="" linkno="" yield="0" dir="s" state="M"/>
   </succ>
   <succ edge=":21_1" lane=":21_1_0" junction="21">
      <succlane lane="62_0" tl="" linkno="" yield="0" dir="s" state="M"/>
   </succ>
   <succ edge=":21_2" lane=":21_2_0" junction="21">
      <succlane lane="74_0" tl="" linkno="" yield="0" dir="s" state="M"/>
   </succ>
   <succ edge=":21_3" lane=":21_3_0" junction="21">
      <succlane lane="62_0" tl="" linkno="" yield="0" dir="s" state="M"/>
   </succ>
   <succ edge=":27_0" lane=":27_0_0" junction="27">
      <succlane lane="81_0" tl="" linkno="" yield="0" dir="s" state="M"/>
   </succ>
   <succ edge=":27_1" lane=":27_1_0" junction="27">
      <succlane lane="75_0" tl="" linkno="" yield="0" dir="s" state="M"/>
   </succ>
   <succ edge=":27_2" lane=":27_2_0" junction="27">
      <succlane lane="81_0" tl="" linkno="" yield="0" dir="s" state="M"/>
   </succ>
   <succ edge=":27_3" lane=":27_3_0" junction="27">
      <succlane lane="75_0" tl="" linkno="" yield="0" dir="s" state="M"/>
   </succ>
   <succ edge=":30_0" lane=":30_0_0" junction="30">
      <succlane lane="84_0" tl="" linkno="" yield="0" dir="s" state="M"/>
   </succ>
   <succ edge=":30_1" lane=":30_1_0" junction="30">
      <succlane lane="82_0" tl="" linkno="" yield="0" dir="s" state="M"/>
   </succ>
   <succ edge=":43_0" lane=":43_0_0" junction="43">
      <succlane lane="94_0" tl="" linkno="" yield="0" dir="s" state="M"/>
   </succ>
   <succ edge=":43_1" lane=":43_1_0" junction="43">
      <succlane lane="90_0" tl="" linkno="" yield="0" dir="s" state="M"/>
   </succ>
   <succ edge=":43_2" lane=":43_2_0" junction="43">
      <succlane lane="94_0" tl="" linkno="" yield="0" dir="s" state="M"/>
   </succ>
   <succ edge=":43_3" lane=":43_3_0" junction="43">
      <succlane lane="90_0" tl="" linkno="" yield="0" dir="s" state="M"/>
   </succ>
   <succ edge=":6_0" lane=":6_0_0" junction="6">
      <succlane lane="31_0" tl="" linkno="" yield="0" dir="s" state="M"/>
   </succ>
   <succ edge=":6_1" lane=":6_1_0" junction="6">
      <succlane lane="29_0" tl="" linkno="" yield="0" dir="s" state="M"/>
   </succ>
   <succ edge=":73_0" lane=":73_0_0" junction="73">
      <succlane lane="100_0" tl="" linkno="" yield="0" dir="s" state="M"/>
   </succ>
   <succ edge=":73_1" lane=":73_1_0" junction="73">
      <succlane lane="106_0" tl="" linkno="" yield="0" dir="s" state="M"/>
   </succ>
   <succ edge=":73_2" lane=":73_2_0" junction="73">
      <succlane lane="100_0" tl="" linkno="" yield="0" dir="s" state="M"/>
   </succ>
   <succ edge=":73_3" lane=":73_3_0" junction="73">
      <succlane lane="106_0" tl="" linkno="" yield="0" dir="s" state="M"/>
   </succ>

</net>
