<?xml version="1.0"?>

<!-- generated on Wed Apr  8 21:17:33 2009 by SUMO netgen Version 0.10.2
<configuration>

   <random_network>
      <random-net>true</random-net>
      <rand-iterations>20</rand-iterations>
   </random_network>

   <output>
      <plain-output>rand</plain-output>
   </output>

   <random_number>
      <abs-rand>true</abs-rand>
   </random_number>

</configuration>
-->

<edges>
   <edge id="100" fromnode="73" tonode="99" nolanes="1" speed="13.90" shape="326.29,173.46 298.62,66.17"/>
   <edge id="106" fromnode="73" tonode="105" nolanes="1" speed="13.90" shape="326.29,173.46 475.94,0.00"/>
   <edge id="13" fromnode="1" tonode="12" nolanes="1" speed="13.90" shape="465.18,556.58 576.65,643.24"/>
   <edge id="17" fromnode="1" tonode="16" nolanes="1" speed="13.90" shape="465.18,556.58 323.73,748.41"/>
   <edge id="18" fromnode="2" tonode="12" nolanes="1" speed="13.90" shape="583.26,453.70 576.65,643.24"/>
   <edge id="22" fromnode="2" tonode="21" nolanes="1" speed="13.90" shape="583.26,453.70 453.75,334.03"/>
   <edge id="28" fromnode="2" tonode="27" nolanes="1" speed="13.90" shape="583.26,453.70 726.54,540.77"/>
   <edge id="29" fromnode="6" tonode="21" nolanes="1" speed="13.90" shape="301.43,411.16 453.75,334.03"/>
   <edge id="3" fromnode="1" tonode="2" nolanes="1" speed="13.90" shape="465.18,556.58 583.26,453.70"/>
   <edge id="31" fromnode="6" tonode="30" nolanes="1" speed="13.90" shape="301.43,411.16 136.77,271.55"/>
   <edge id="32" fromnode="12" tonode="27" nolanes="1" speed="13.90" shape="576.65,643.24 726.54,540.77"/>
   <edge id="44" fromnode="12" tonode="43" nolanes="1" speed="13.90" shape="576.65,643.24 803.23,710.49"/>
   <edge id="46" fromnode="16" tonode="45" nolanes="1" speed="13.90" shape="323.73,748.41 241.95,559.44"/>
   <edge id="54" fromnode="16" tonode="53" nolanes="1" speed="13.90" shape="323.73,748.41 230.63,796.06"/>
   <edge id="58" fromnode="16" tonode="57" nolanes="1" speed="13.90" shape="323.73,748.41 449.34,812.81"/>
   <edge id="62" fromnode="21" tonode="61" nolanes="1" speed="13.90" shape="453.75,334.03 476.19,223.09"/>
   <edge id="7" fromnode="1" tonode="6" nolanes="1" speed="13.90" shape="465.18,556.58 301.43,411.16"/>
   <edge id="74" fromnode="21" tonode="73" nolanes="1" speed="13.90" shape="453.75,334.03 326.29,173.46"/>
   <edge id="75" fromnode="27" tonode="43" nolanes="1" speed="13.90" shape="726.54,540.77 803.23,710.49"/>
   <edge id="81" fromnode="27" tonode="80" nolanes="1" speed="13.90" shape="726.54,540.77 787.25,426.09"/>
   <edge id="82" fromnode="30" tonode="73" nolanes="1" speed="13.90" shape="136.77,271.55 326.29,173.46"/>
   <edge id="84" fromnode="30" tonode="83" nolanes="1" speed="13.90" shape="136.77,271.55 0.00,75.68"/>
   <edge id="90" fromnode="43" tonode="89" nolanes="1" speed="13.90" shape="803.23,710.49 888.47,774.28"/>
   <edge id="94" fromnode="43" tonode="93" nolanes="1" speed="13.90" shape="803.23,710.49 879.96,523.92"/>
</edges>
