<?xml version="1.0"?>

<!-- generated on Wed Apr  8 21:17:33 2009 by SUMO netgen Version 0.10.2
<configuration>

   <random_network>
      <random-net>true</random-net>
      <rand-iterations>20</rand-iterations>
   </random_network>

   <output>
      <plain-output>rand</plain-output>
   </output>

   <random_number>
      <abs-rand>true</abs-rand>
   </random_number>

</configuration>
-->

<nodes>
   <node id="1" x="465.18" y="556.58"/>
   <node id="105" x="475.94" y="0.00"/>
   <node id="12" x="576.65" y="643.24"/>
   <node id="16" x="323.73" y="748.41"/>
   <node id="2" x="583.26" y="453.70"/>
   <node id="21" x="453.75" y="334.03"/>
   <node id="27" x="726.54" y="540.77"/>
   <node id="30" x="136.77" y="271.55"/>
   <node id="43" x="803.23" y="710.49"/>
   <node id="45" x="241.95" y="559.44"/>
   <node id="53" x="230.63" y="796.06"/>
   <node id="57" x="449.34" y="812.81"/>
   <node id="6" x="301.43" y="411.16"/>
   <node id="61" x="476.19" y="223.09"/>
   <node id="73" x="326.29" y="173.46"/>
   <node id="80" x="787.25" y="426.09"/>
   <node id="83" x="0.00" y="75.68"/>
   <node id="89" x="888.47" y="774.28"/>
   <node id="93" x="879.96" y="523.92"/>
   <node id="99" x="298.62" y="66.17"/>
</nodes>
